LTspice 24.1.4 for Windows
Circuit: C:\Users\emanu\Documents\POLITO\ANALabs\Lab1\Sim\SampleAndHold_TrasmissionGate.net
Start Time: Tue Mar 25 15:06:20 2025
solver = Normal
Maximum thread count: 12
tnom = 27
temp = 27
method = trap
C:\Users\emanu\Documents\POLITO\ANALabs\Lab1\Sim\SampleAndHold_TrasmissionGate.net(8): Limiting rise time to 5e-06.

Vclk N001 0 PULSE(0 10 0 0 0 50u 100u)
^^^^^^^^^^^^^^^^^^^^^^^^^^^^^^^^^^^^^^
C:\Users\emanu\Documents\POLITO\ANALabs\Lab1\Sim\SampleAndHold_TrasmissionGate.net(8): Limiting fall time to 5e-06.

Vclk N001 0 PULSE(0 10 0 0 0 50u 100u)
^^^^^^^^^^^^^^^^^^^^^^^^^^^^^^^^^^^^^^
Direct Newton iteration for .op point succeeded.
Warning: Simulation tolerance relaxed to achieve convergence from 2.0270646590804541e-04 to 2.0270646590804642e-04 seconds.
Warning: Simulation tolerance relaxed to achieve convergence from 2.0270646590804642e-04 to 2.0270646590804742e-04 seconds.
Warning: Simulation tolerance relaxed to achieve convergence from 2.0270646590804742e-04 to 2.0270646590804842e-04 seconds.
Warning: Simulation tolerance relaxed to achieve convergence from 2.0270646590804842e-04 to 2.0270646590804943e-04 seconds.
Warning: Simulation tolerance relaxed to achieve convergence from 2.0270646590804943e-04 to 2.0270646590805043e-04 seconds.
Warning: Simulation tolerance relaxed to achieve convergence from 2.0270646590805043e-04 to 2.0270646590805143e-04 seconds.
Warning: Simulation tolerance relaxed to achieve convergence from 2.0270646590805143e-04 to 2.0270646590805243e-04 seconds.
Warning: Simulation tolerance relaxed to achieve convergence from 2.0270646590805243e-04 to 2.0270646590805344e-04 seconds.
Warning: Simulation tolerance relaxed to achieve convergence from 2.0270646590805344e-04 to 2.0270646590805444e-04 seconds.
Warning: Simulation tolerance relaxed to achieve convergence from 2.0270646590805444e-04 to 2.0270646590805544e-04 seconds.
Warning: Simulation tolerance relaxed to achieve convergence from 2.0270646590805544e-04 to 2.0270646590805645e-04 seconds.
Warning: Simulation tolerance relaxed to achieve convergence from 2.0270646590805645e-04 to 2.0270646590805745e-04 seconds.
Warning: Simulation tolerance relaxed to achieve convergence from 2.0270646590805745e-04 to 2.0270646590805845e-04 seconds.
Warning: Simulation tolerance relaxed to achieve convergence from 2.0270646590805845e-04 to 2.0270646590805945e-04 seconds.
Warning: Simulation tolerance relaxed to achieve convergence from 2.0270646590805945e-04 to 2.0270646590806046e-04 seconds.
Warning: Simulation tolerance relaxed to achieve convergence from 2.0270646590806046e-04 to 2.0270646590806146e-04 seconds.
Warning: Simulation tolerance relaxed to achieve convergence from 2.0270646590806146e-04 to 2.0270646590806246e-04 seconds.
Warning: Simulation tolerance relaxed to achieve convergence from 2.0270646590806246e-04 to 2.0270646590806347e-04 seconds.
Warning: Simulation tolerance relaxed to achieve convergence from 2.0270646590806347e-04 to 2.0270646590806447e-04 seconds.
Warning: Simulation tolerance relaxed to achieve convergence from 2.0270646590806447e-04 to 2.0270646590806547e-04 seconds.
Warning: Simulation tolerance relaxed to achieve convergence from 2.0270646590806547e-04 to 2.0270646590806647e-04 seconds.
Warning: Simulation tolerance relaxed to achieve convergence from 2.0270646590806647e-04 to 2.0270646590806748e-04 seconds.
Warning: Simulation tolerance relaxed to achieve convergence from 2.0270646590806748e-04 to 2.0270646590806848e-04 seconds.
Warning: Simulation tolerance relaxed to achieve convergence from 2.0270646590806848e-04 to 2.0270646590806948e-04 seconds.
Warning: Simulation tolerance relaxed to achieve convergence from 2.0270646590806948e-04 to 2.0270646590807049e-04 seconds.
Warning: Simulation tolerance relaxed to achieve convergence from 2.0270646590807049e-04 to 2.0270646590807149e-04 seconds.
Warning: Simulation tolerance relaxed to achieve convergence from 2.0270646590807149e-04 to 2.0270646590807249e-04 seconds.
Warning: Simulation tolerance relaxed to achieve convergence from 2.0270646590807249e-04 to 2.0270646590807349e-04 seconds.
Warning: Simulation tolerance relaxed to achieve convergence from 2.0270646590807349e-04 to 2.0270646590807450e-04 seconds.
Warning: Simulation tolerance relaxed to achieve convergence from 2.0270646590807450e-04 to 2.0270646590807550e-04 seconds.
Warning: Simulation tolerance relaxed to achieve convergence from 2.0270646590807550e-04 to 2.0270646590807650e-04 seconds.
Warning: Simulation tolerance relaxed to achieve convergence from 2.0270646590807650e-04 to 2.0270646590807751e-04 seconds.
Warning: Simulation tolerance relaxed to achieve convergence from 2.0270646590807751e-04 to 2.0270646590807851e-04 seconds.
Warning: Simulation tolerance relaxed to achieve convergence from 2.0270646590807851e-04 to 2.0270646590807951e-04 seconds.
Warning: Simulation tolerance relaxed to achieve convergence from 2.0270646590807951e-04 to 2.0270646590808051e-04 seconds.
Warning: Simulation tolerance relaxed to achieve convergence from 2.0270646590808051e-04 to 2.0270646590808152e-04 seconds.
Warning: Simulation tolerance relaxed to achieve convergence from 2.0270646590808152e-04 to 2.0270646590808252e-04 seconds.
Warning: Simulation tolerance relaxed to achieve convergence from 2.0270646590808252e-04 to 2.0270646590808352e-04 seconds.
Warning: Simulation tolerance relaxed to achieve convergence from 2.0270646590808352e-04 to 2.0270646590808453e-04 seconds.
Warning: Simulation tolerance relaxed to achieve convergence from 2.0270646590808453e-04 to 2.0270646590808553e-04 seconds.
Warning: Simulation tolerance relaxed to achieve convergence from 2.0270646590808553e-04 to 2.0270646590808653e-04 seconds.
Warning: Simulation tolerance relaxed to achieve convergence from 2.0270646590808653e-04 to 2.0270646590808754e-04 seconds.
Warning: Simulation tolerance relaxed to achieve convergence from 2.0270646590808754e-04 to 2.0270646590808854e-04 seconds.
Warning: Simulation tolerance relaxed to achieve convergence from 2.0270646590808854e-04 to 2.0270646590808954e-04 seconds.
Warning: Simulation tolerance relaxed to achieve convergence from 2.0270646590808954e-04 to 2.0270646590809054e-04 seconds.
Warning: Simulation tolerance relaxed to achieve convergence from 2.0270646590809054e-04 to 2.0270646590809155e-04 seconds.
Warning: Simulation tolerance relaxed to achieve convergence from 2.0270646590809155e-04 to 2.0270646590809255e-04 seconds.
Warning: Simulation tolerance relaxed to achieve convergence from 2.0270646590809255e-04 to 2.0270646590809355e-04 seconds.
Warning: Simulation tolerance relaxed to achieve convergence from 2.0270646590809355e-04 to 2.0270646590809456e-04 seconds.
Warning: Simulation tolerance relaxed to achieve convergence from 2.0270646590809456e-04 to 2.0270646590809556e-04 seconds.
Warning: Simulation tolerance relaxed to achieve convergence from 2.0270646590809556e-04 to 2.0270646590809656e-04 seconds.
Warning: Simulation tolerance relaxed to achieve convergence from 2.0270646590809656e-04 to 2.0270646590809756e-04 seconds.
Warning: Simulation tolerance relaxed to achieve convergence from 2.0270646590809756e-04 to 2.0270646590809857e-04 seconds.
Warning: Simulation tolerance relaxed to achieve convergence from 2.0270646590809857e-04 to 2.0270646590809957e-04 seconds.
Warning: Simulation tolerance relaxed to achieve convergence from 2.0270646590809957e-04 to 2.0270646590810057e-04 seconds.
Warning: Simulation tolerance relaxed to achieve convergence from 2.0270646590810057e-04 to 2.0270646590810158e-04 seconds.
Warning: Simulation tolerance relaxed to achieve convergence from 2.0270646590810158e-04 to 2.0270646590810258e-04 seconds.
Warning: Simulation tolerance relaxed to achieve convergence from 2.0270646590810258e-04 to 2.0270646590810358e-04 seconds.
Warning: Simulation tolerance relaxed to achieve convergence from 2.0270646590810358e-04 to 2.0270646590810458e-04 seconds.
Warning: Simulation tolerance relaxed to achieve convergence from 2.0270646590810458e-04 to 2.0270646590810559e-04 seconds.
Warning: Simulation tolerance relaxed to achieve convergence from 2.0270646590810559e-04 to 2.0270646590810659e-04 seconds.
Warning: Simulation tolerance relaxed to achieve convergence from 2.0270646590810659e-04 to 2.0270646590810759e-04 seconds.
Warning: Simulation tolerance relaxed to achieve convergence from 2.0270646590810759e-04 to 2.0270646590810860e-04 seconds.
Warning: Simulation tolerance relaxed to achieve convergence from 2.0270646590810860e-04 to 2.0270646590810960e-04 seconds.
Warning: Simulation tolerance relaxed to achieve convergence from 2.0270646590810960e-04 to 2.0270646590811060e-04 seconds.
Warning: Simulation tolerance relaxed to achieve convergence from 2.0270646590811060e-04 to 2.0270646590811160e-04 seconds.
Warning: Simulation tolerance relaxed to achieve convergence from 2.0270646590811160e-04 to 2.0270646590811261e-04 seconds.
Warning: Simulation tolerance relaxed to achieve convergence from 2.0270646590811261e-04 to 2.0270646590811361e-04 seconds.
Warning: Simulation tolerance relaxed to achieve convergence from 2.0270646590811361e-04 to 2.0270646590811461e-04 seconds.
Warning: Simulation tolerance relaxed to achieve convergence from 2.0270646590811461e-04 to 2.0270646590811562e-04 seconds.
Warning: Simulation tolerance relaxed to achieve convergence from 2.0270646590811562e-04 to 2.0270646590811662e-04 seconds.
Warning: Simulation tolerance relaxed to achieve convergence from 2.0270646590811662e-04 to 2.0270646590811762e-04 seconds.
Warning: Simulation tolerance relaxed to achieve convergence from 2.0270646590811762e-04 to 2.0270646590811862e-04 seconds.
Warning: Simulation tolerance relaxed to achieve convergence from 2.0270646590811862e-04 to 2.0270646590811963e-04 seconds.
Warning: Simulation tolerance relaxed to achieve convergence from 2.0270646590811963e-04 to 2.0270646590812063e-04 seconds.
Warning: Simulation tolerance relaxed to achieve convergence from 2.0270646590812063e-04 to 2.0270646590812163e-04 seconds.
Warning: Simulation tolerance relaxed to achieve convergence from 2.0270646590812163e-04 to 2.0270646590812264e-04 seconds.
Warning: Simulation tolerance relaxed to achieve convergence from 2.0270646590812264e-04 to 2.0270646590812364e-04 seconds.
Warning: Simulation tolerance relaxed to achieve convergence from 2.0270646590812364e-04 to 2.0270646590812464e-04 seconds.
Warning: Simulation tolerance relaxed to achieve convergence from 2.0270646590812464e-04 to 2.0270646590812564e-04 seconds.
Warning: Simulation tolerance relaxed to achieve convergence from 2.0270646590812564e-04 to 2.0270646590812665e-04 seconds.
Warning: Simulation tolerance relaxed to achieve convergence from 2.0270646590812665e-04 to 2.0270646590812765e-04 seconds.
Warning: Simulation tolerance relaxed to achieve convergence from 2.0270646590812765e-04 to 2.0270646590812865e-04 seconds.
Warning: Simulation tolerance relaxed to achieve convergence from 2.0270646590812865e-04 to 2.0270646590812966e-04 seconds.
Warning: Simulation tolerance relaxed to achieve convergence from 2.0270646590812966e-04 to 2.0270646590813066e-04 seconds.
Warning: Simulation tolerance relaxed to achieve convergence from 2.0270646590813066e-04 to 2.0270646590813166e-04 seconds.
Warning: Simulation tolerance relaxed to achieve convergence from 2.0270646590813166e-04 to 2.0270646590813266e-04 seconds.
Warning: Simulation tolerance relaxed to achieve convergence from 2.0270646590813266e-04 to 2.0270646590813367e-04 seconds.
Warning: Simulation tolerance relaxed to achieve convergence from 2.0270646590813367e-04 to 2.0270646590813467e-04 seconds.
Warning: Simulation tolerance relaxed to achieve convergence from 2.0270646590813467e-04 to 2.0270646590813567e-04 seconds.
Warning: Simulation tolerance relaxed to achieve convergence from 2.0270646590813567e-04 to 2.0270646590813668e-04 seconds.
Warning: Simulation tolerance relaxed to achieve convergence from 2.0270646590813668e-04 to 2.0270646590813768e-04 seconds.
Warning: Simulation tolerance relaxed to achieve convergence from 2.0270646590813768e-04 to 2.0270646590813868e-04 seconds.
Warning: Simulation tolerance relaxed to achieve convergence from 2.0270646590813868e-04 to 2.0270646590813969e-04 seconds.
Warning: Simulation tolerance relaxed to achieve convergence from 2.0270646590813969e-04 to 2.0270646590814069e-04 seconds.
Warning: Simulation tolerance relaxed to achieve convergence from 2.0270646590814069e-04 to 2.0270646590814169e-04 seconds.
Warning: Simulation tolerance relaxed to achieve convergence from 2.0270646590814169e-04 to 2.0270646590814269e-04 seconds.
Warning: Simulation tolerance relaxed to achieve convergence from 2.0270646590814269e-04 to 2.0270646590814370e-04 seconds.
Warning: Simulation tolerance relaxed to achieve convergence from 2.0270646590814370e-04 to 2.0270646590814470e-04 seconds.
Warning: Simulation tolerance relaxed to achieve convergence from 2.0270646590814470e-04 to 2.0270646590814570e-04 seconds.
Warning: Simulation tolerance relaxed to achieve convergence from 2.0270646590814570e-04 to 2.0270646590814671e-04 seconds.
Warning: Simulation tolerance relaxed to achieve convergence from 2.0270646590814671e-04 to 2.0270646590814771e-04 seconds.
Warning: Simulation tolerance relaxed to achieve convergence from 2.0270646590814771e-04 to 2.0270646590814871e-04 seconds.
Warning: Simulation tolerance relaxed to achieve convergence from 2.0270646590814871e-04 to 2.0270646590814971e-04 seconds.
Warning: Simulation tolerance relaxed to achieve convergence from 2.0270646590814971e-04 to 2.0270646590815072e-04 seconds.
Warning: Simulation tolerance relaxed to achieve convergence from 2.0270646590815072e-04 to 2.0270646590815172e-04 seconds.
Warning: Simulation tolerance relaxed to achieve convergence from 2.0270646590815172e-04 to 2.0270646590815272e-04 seconds.
Warning: Simulation tolerance relaxed to achieve convergence from 2.0270646590815272e-04 to 2.0270646590815373e-04 seconds.
Warning: Simulation tolerance relaxed to achieve convergence from 2.0270646590815373e-04 to 2.0270646590815473e-04 seconds.
Warning: Simulation tolerance relaxed to achieve convergence from 2.0270646590815473e-04 to 2.0270646590815573e-04 seconds.
Warning: Simulation tolerance relaxed to achieve convergence from 2.0270646590815573e-04 to 2.0270646590815673e-04 seconds.
Warning: Simulation tolerance relaxed to achieve convergence from 2.0270646590815673e-04 to 2.0270646590815774e-04 seconds.
Warning: Simulation tolerance relaxed to achieve convergence from 2.0270646590815774e-04 to 2.0270646590815874e-04 seconds.
Warning: Simulation tolerance relaxed to achieve convergence from 2.0270646590815874e-04 to 2.0270646590815974e-04 seconds.
Warning: Simulation tolerance relaxed to achieve convergence from 2.0270646590815974e-04 to 2.0270646590816075e-04 seconds.
Warning: Simulation tolerance relaxed to achieve convergence from 2.0270646590816075e-04 to 2.0270646590816175e-04 seconds.
Warning: Simulation tolerance relaxed to achieve convergence from 2.0270646590816175e-04 to 2.0270646590816275e-04 seconds.
Warning: Simulation tolerance relaxed to achieve convergence from 2.0270646590816275e-04 to 2.0270646590816375e-04 seconds.
Warning: Simulation tolerance relaxed to achieve convergence from 2.0270646590816375e-04 to 2.0270646590816476e-04 seconds.
Warning: Simulation tolerance relaxed to achieve convergence from 2.0270646590816476e-04 to 2.0270646590816576e-04 seconds.
Warning: Simulation tolerance relaxed to achieve convergence from 2.0270646590816576e-04 to 2.0270646590816676e-04 seconds.
Warning: Simulation tolerance relaxed to achieve convergence from 2.0270646590816676e-04 to 2.0270646590816777e-04 seconds.
Warning: Simulation tolerance relaxed to achieve convergence from 2.0270646590816777e-04 to 2.0270646590816877e-04 seconds.
Warning: Simulation tolerance relaxed to achieve convergence from 2.0270646590816877e-04 to 2.0270646590816977e-04 seconds.
Warning: Simulation tolerance relaxed to achieve convergence from 2.0270646590816977e-04 to 2.0270646590817077e-04 seconds.
Warning: Simulation tolerance relaxed to achieve convergence from 2.0270646590817077e-04 to 2.0270646590817178e-04 seconds.
Warning: Simulation tolerance relaxed to achieve convergence from 2.0270646590817178e-04 to 2.0270646590817278e-04 seconds.
Warning: Simulation tolerance relaxed to achieve convergence from 2.0270646590817278e-04 to 2.0270646590817378e-04 seconds.
Warning: Simulation tolerance relaxed to achieve convergence from 2.0270646590817378e-04 to 2.0270646590817479e-04 seconds.
Warning: Simulation tolerance relaxed to achieve convergence from 2.0270646590817479e-04 to 2.0270646590817579e-04 seconds.
Warning: Simulation tolerance relaxed to achieve convergence from 2.0270646590817579e-04 to 2.0270646590817679e-04 seconds.
Warning: Simulation tolerance relaxed to achieve convergence from 2.0270646590817679e-04 to 2.0270646590817779e-04 seconds.
Warning: Simulation tolerance relaxed to achieve convergence from 2.0270646590817779e-04 to 2.0270646590817880e-04 seconds.
Warning: Simulation tolerance relaxed to achieve convergence from 2.0270646590817880e-04 to 2.0270646590817980e-04 seconds.
Warning: Simulation tolerance relaxed to achieve convergence from 2.0270646590817980e-04 to 2.0270646590818080e-04 seconds.
Warning: Simulation tolerance relaxed to achieve convergence from 2.0270646590818080e-04 to 2.0270646590818181e-04 seconds.
Warning: Simulation tolerance relaxed to achieve convergence from 2.0270646590818181e-04 to 2.0270646590818281e-04 seconds.
Warning: Simulation tolerance relaxed to achieve convergence from 2.0270646590818281e-04 to 2.0270646590818381e-04 seconds.
Warning: Simulation tolerance relaxed to achieve convergence from 2.0270646590818381e-04 to 2.0270646590818482e-04 seconds.
Warning: Simulation tolerance relaxed to achieve convergence from 2.0270646590818482e-04 to 2.0270646590818582e-04 seconds.
Warning: Simulation tolerance relaxed to achieve convergence from 2.0270646590818582e-04 to 2.0270646590818682e-04 seconds.
Warning: Simulation tolerance relaxed to achieve convergence from 2.0270646590818682e-04 to 2.0270646590818782e-04 seconds.
Warning: Simulation tolerance relaxed to achieve convergence from 2.0270646590818782e-04 to 2.0270646590818883e-04 seconds.
Warning: Simulation tolerance relaxed to achieve convergence from 2.0270646590818883e-04 to 2.0270646590818983e-04 seconds.
Warning: Simulation tolerance relaxed to achieve convergence from 2.0270646590818983e-04 to 2.0270646590819083e-04 seconds.
Warning: Simulation tolerance relaxed to achieve convergence from 2.0270646590819083e-04 to 2.0270646590819184e-04 seconds.
Warning: Simulation tolerance relaxed to achieve convergence from 2.0270646590819184e-04 to 2.0270646590819284e-04 seconds.
Warning: Simulation tolerance relaxed to achieve convergence from 2.0270646590819284e-04 to 2.0270646590819384e-04 seconds.
Warning: Simulation tolerance relaxed to achieve convergence from 2.0270646590819384e-04 to 2.0270646590819484e-04 seconds.
Warning: Simulation tolerance relaxed to achieve convergence from 2.0270646590819484e-04 to 2.0270646590819585e-04 seconds.
Warning: Simulation tolerance relaxed to achieve convergence from 2.0270646590819585e-04 to 2.0270646590819685e-04 seconds.
Warning: Simulation tolerance relaxed to achieve convergence from 2.0270646590819685e-04 to 2.0270646590819785e-04 seconds.
Warning: Simulation tolerance relaxed to achieve convergence from 2.0270646590819785e-04 to 2.0270646590819886e-04 seconds.
Warning: Simulation tolerance relaxed to achieve convergence from 2.0270646590819886e-04 to 2.0270646590819986e-04 seconds.
Warning: Simulation tolerance relaxed to achieve convergence from 2.0270646590819986e-04 to 2.0270646590820086e-04 seconds.
Warning: Simulation tolerance relaxed to achieve convergence from 2.0270646590820086e-04 to 2.0270646590820186e-04 seconds.
Warning: Simulation tolerance relaxed to achieve convergence from 2.0270646590820186e-04 to 2.0270646590820287e-04 seconds.
Warning: Simulation tolerance relaxed to achieve convergence from 2.0270646590820287e-04 to 2.0270646590820387e-04 seconds.
Warning: Simulation tolerance relaxed to achieve convergence from 2.0270646590820387e-04 to 2.0270646590820487e-04 seconds.
Warning: Simulation tolerance relaxed to achieve convergence from 2.0270646590820487e-04 to 2.0270646590820588e-04 seconds.
Warning: Simulation tolerance relaxed to achieve convergence from 2.0270646590820588e-04 to 2.0270646590820688e-04 seconds.
Warning: Simulation tolerance relaxed to achieve convergence from 2.0270646590820688e-04 to 2.0270646590820788e-04 seconds.
Warning: Simulation tolerance relaxed to achieve convergence from 2.0270646590820788e-04 to 2.0270646590820888e-04 seconds.
Warning: Simulation tolerance relaxed to achieve convergence from 2.0270646590820888e-04 to 2.0270646590820989e-04 seconds.
Warning: Simulation tolerance relaxed to achieve convergence from 2.0270646590820989e-04 to 2.0270646590821089e-04 seconds.
Warning: Simulation tolerance relaxed to achieve convergence from 2.0270646590821089e-04 to 2.0270646590821189e-04 seconds.
Warning: Simulation tolerance relaxed to achieve convergence from 2.0270646590821189e-04 to 2.0270646590821290e-04 seconds.
Warning: Simulation tolerance relaxed to achieve convergence from 2.0270646590821290e-04 to 2.0270646590821390e-04 seconds.
Warning: Simulation tolerance relaxed to achieve convergence from 2.0270646590821390e-04 to 2.0270646590821490e-04 seconds.
Warning: Simulation tolerance relaxed to achieve convergence from 2.0270646590821490e-04 to 2.0270646590821590e-04 seconds.
Warning: Simulation tolerance relaxed to achieve convergence from 2.0270646590821590e-04 to 2.0270646590821691e-04 seconds.
Warning: Simulation tolerance relaxed to achieve convergence from 2.0270646590821691e-04 to 2.0270646590821791e-04 seconds.
Warning: Simulation tolerance relaxed to achieve convergence from 2.0270646590821791e-04 to 2.0270646590821891e-04 seconds.
Warning: Simulation tolerance relaxed to achieve convergence from 2.0270646590821891e-04 to 2.0270646590821992e-04 seconds.
Warning: Simulation tolerance relaxed to achieve convergence from 2.0270646590821992e-04 to 2.0270646590822092e-04 seconds.
Warning: Simulation tolerance relaxed to achieve convergence from 2.0270646590822092e-04 to 2.0270646590822192e-04 seconds.
Warning: Simulation tolerance relaxed to achieve convergence from 2.0270646590822192e-04 to 2.0270646590822292e-04 seconds.
Warning: Simulation tolerance relaxed to achieve convergence from 2.0270646590822292e-04 to 2.0270646590822393e-04 seconds.
Warning: Simulation tolerance relaxed to achieve convergence from 2.0270646590822393e-04 to 2.0270646590822493e-04 seconds.
Warning: Simulation tolerance relaxed to achieve convergence from 2.0270646590822493e-04 to 2.0270646590822593e-04 seconds.
Warning: Simulation tolerance relaxed to achieve convergence from 2.0270646590822593e-04 to 2.0270646590822694e-04 seconds.
Warning: Simulation tolerance relaxed to achieve convergence from 2.0270646590822694e-04 to 2.0270646590822794e-04 seconds.
Warning: Simulation tolerance relaxed to achieve convergence from 2.0270646590822794e-04 to 2.0270646590822894e-04 seconds.
Warning: Simulation tolerance relaxed to achieve convergence from 2.0270646590822894e-04 to 2.0270646590822994e-04 seconds.
Warning: Simulation tolerance relaxed to achieve convergence from 2.0270646590822994e-04 to 2.0270646590823095e-04 seconds.
Warning: Simulation tolerance relaxed to achieve convergence from 2.0270646590823095e-04 to 2.0270646590823195e-04 seconds.
Warning: Simulation tolerance relaxed to achieve convergence from 2.0270646590823195e-04 to 2.0270646590823295e-04 seconds.
Warning: Simulation tolerance relaxed to achieve convergence from 2.0270646590823295e-04 to 2.0270646590823396e-04 seconds.
Warning: Simulation tolerance relaxed to achieve convergence from 2.0270646590823396e-04 to 2.0270646590823496e-04 seconds.
Warning: Simulation tolerance relaxed to achieve convergence from 2.0270646590823496e-04 to 2.0270646590823596e-04 seconds.
Warning: Simulation tolerance relaxed to achieve convergence from 2.0270646590823596e-04 to 2.0270646590823697e-04 seconds.
Warning: Simulation tolerance relaxed to achieve convergence from 2.0270646590823697e-04 to 2.0270646590823797e-04 seconds.
Warning: Simulation tolerance relaxed to achieve convergence from 2.0270646590823797e-04 to 2.0270646590823897e-04 seconds.
Warning: Simulation tolerance relaxed to achieve convergence from 2.0270646590823897e-04 to 2.0270646590823997e-04 seconds.
Warning: Simulation tolerance relaxed to achieve convergence from 2.0270646590823997e-04 to 2.0270646590824098e-04 seconds.
Warning: Simulation tolerance relaxed to achieve convergence from 2.0270646590824098e-04 to 2.0270646590824198e-04 seconds.
Warning: Simulation tolerance relaxed to achieve convergence from 2.0270646590824198e-04 to 2.0270646590824298e-04 seconds.
Warning: Simulation tolerance relaxed to achieve convergence from 2.0270646590824298e-04 to 2.0270646590824399e-04 seconds.
Warning: Simulation tolerance relaxed to achieve convergence from 2.0270646590824399e-04 to 2.0270646590824499e-04 seconds.
Warning: Simulation tolerance relaxed to achieve convergence from 2.0270646590824499e-04 to 2.0270646590824599e-04 seconds.
Warning: Simulation tolerance relaxed to achieve convergence from 2.0270646590824599e-04 to 2.0270646590824699e-04 seconds.
Warning: Simulation tolerance relaxed to achieve convergence from 2.0270646590824699e-04 to 2.0270646590824800e-04 seconds.
Warning: Simulation tolerance relaxed to achieve convergence from 2.0270646590824800e-04 to 2.0270646590824900e-04 seconds.
Warning: Simulation tolerance relaxed to achieve convergence from 2.0270646590824900e-04 to 2.0270646590825000e-04 seconds.
Warning: Simulation tolerance relaxed to achieve convergence from 2.0270646590825000e-04 to 2.0270646590825101e-04 seconds.
Warning: Simulation tolerance relaxed to achieve convergence from 2.0270646590825101e-04 to 2.0270646590825201e-04 seconds.
Warning: Simulation tolerance relaxed to achieve convergence from 2.0270646590825201e-04 to 2.0270646590825301e-04 seconds.
Warning: Simulation tolerance relaxed to achieve convergence from 2.0270646590825301e-04 to 2.0270646590825401e-04 seconds.
Warning: Simulation tolerance relaxed to achieve convergence from 2.0270646590825401e-04 to 2.0270646590825502e-04 seconds.
Warning: Simulation tolerance relaxed to achieve convergence from 2.0270646590825502e-04 to 2.0270646590825602e-04 seconds.
Warning: Simulation tolerance relaxed to achieve convergence from 2.0270646590825602e-04 to 2.0270646590825702e-04 seconds.
Warning: Simulation tolerance relaxed to achieve convergence from 2.0270646590825702e-04 to 2.0270646590825803e-04 seconds.
Warning: Simulation tolerance relaxed to achieve convergence from 2.0270646590825803e-04 to 2.0270646590825903e-04 seconds.
Warning: Simulation tolerance relaxed to achieve convergence from 2.0270646590825903e-04 to 2.0270646590826003e-04 seconds.
Warning: Simulation tolerance relaxed to achieve convergence from 2.0270646590826003e-04 to 2.0270646590826103e-04 seconds.
Warning: Simulation tolerance relaxed to achieve convergence from 2.0270646590826103e-04 to 2.0270646590826204e-04 seconds.
Warning: Simulation tolerance relaxed to achieve convergence from 2.0270646590826204e-04 to 2.0270646590826304e-04 seconds.
Warning: Simulation tolerance relaxed to achieve convergence from 2.0270646590826304e-04 to 2.0270646590826404e-04 seconds.
Warning: Simulation tolerance relaxed to achieve convergence from 2.0270646590826404e-04 to 2.0270646590826505e-04 seconds.
Warning: Simulation tolerance relaxed to achieve convergence from 2.0270646590826505e-04 to 2.0270646590826605e-04 seconds.
Warning: Simulation tolerance relaxed to achieve convergence from 2.0270646590826605e-04 to 2.0270646590826705e-04 seconds.
Warning: Simulation tolerance relaxed to achieve convergence from 2.0270646590826705e-04 to 2.0270646590826805e-04 seconds.
Warning: Simulation tolerance relaxed to achieve convergence from 2.0270646590826805e-04 to 2.0270646590826906e-04 seconds.
Warning: Simulation tolerance relaxed to achieve convergence from 2.0270646590826906e-04 to 2.0270646590827006e-04 seconds.
Warning: Simulation tolerance relaxed to achieve convergence from 2.0270646590827006e-04 to 2.0270646590827106e-04 seconds.
Warning: Simulation tolerance relaxed to achieve convergence from 2.0270646590827106e-04 to 2.0270646590827207e-04 seconds.
Warning: Simulation tolerance relaxed to achieve convergence from 2.0270646590827207e-04 to 2.0270646590827307e-04 seconds.
Warning: Simulation tolerance relaxed to achieve convergence from 2.0270646590827307e-04 to 2.0270646590827407e-04 seconds.
Warning: Simulation tolerance relaxed to achieve convergence from 2.0270646590827407e-04 to 2.0270646590827507e-04 seconds.
Warning: Simulation tolerance relaxed to achieve convergence from 2.0270646590827507e-04 to 2.0270646590827608e-04 seconds.
Warning: Simulation tolerance relaxed to achieve convergence from 2.0270646590827608e-04 to 2.0270646590827708e-04 seconds.
Warning: Simulation tolerance relaxed to achieve convergence from 2.0270646590827708e-04 to 2.0270646590827808e-04 seconds.
Warning: Simulation tolerance relaxed to achieve convergence from 2.0270646590827808e-04 to 2.0270646590827909e-04 seconds.
Warning: Simulation tolerance relaxed to achieve convergence from 2.0270646590827909e-04 to 2.0270646590828009e-04 seconds.
Warning: Simulation tolerance relaxed to achieve convergence from 2.0270646590828009e-04 to 2.0270646590828109e-04 seconds.
Warning: Simulation tolerance relaxed to achieve convergence from 2.0270646590828109e-04 to 2.0270646590828210e-04 seconds.
Warning: Simulation tolerance relaxed to achieve convergence from 2.0270646590828210e-04 to 2.0270646590828310e-04 seconds.
Warning: Simulation tolerance relaxed to achieve convergence from 2.0270646590828310e-04 to 2.0270646590828410e-04 seconds.
Warning: Simulation tolerance relaxed to achieve convergence from 2.0270646590828410e-04 to 2.0270646590828510e-04 seconds.
Warning: Simulation tolerance relaxed to achieve convergence from 2.0270646590828510e-04 to 2.0270646590828611e-04 seconds.
Warning: Simulation tolerance relaxed to achieve convergence from 2.0270646590828611e-04 to 2.0270646590828711e-04 seconds.
Warning: Simulation tolerance relaxed to achieve convergence from 2.0270646590828711e-04 to 2.0270646590828811e-04 seconds.
Warning: Simulation tolerance relaxed to achieve convergence from 2.0270646590828811e-04 to 2.0270646590828912e-04 seconds.
Warning: Simulation tolerance relaxed to achieve convergence from 2.0270646590828912e-04 to 2.0270646590829012e-04 seconds.
Warning: Simulation tolerance relaxed to achieve convergence from 2.0270646590829012e-04 to 2.0270646590829112e-04 seconds.
Warning: Simulation tolerance relaxed to achieve convergence from 2.0270646590829112e-04 to 2.0270646590829212e-04 seconds.
Warning: Simulation tolerance relaxed to achieve convergence from 2.0270646590829212e-04 to 2.0270646590829313e-04 seconds.
Warning: Simulation tolerance relaxed to achieve convergence from 2.0270646590829313e-04 to 2.0270646590829413e-04 seconds.
Warning: Simulation tolerance relaxed to achieve convergence from 2.0270646590829413e-04 to 2.0270646590829513e-04 seconds.
Warning: Simulation tolerance relaxed to achieve convergence from 2.0270646590829513e-04 to 2.0270646590829614e-04 seconds.
Warning: Simulation tolerance relaxed to achieve convergence from 2.0270646590829614e-04 to 2.0270646590829714e-04 seconds.
Warning: Simulation tolerance relaxed to achieve convergence from 2.0270646590829714e-04 to 2.0270646590829814e-04 seconds.
Warning: Simulation tolerance relaxed to achieve convergence from 2.0270646590829814e-04 to 2.0270646590829914e-04 seconds.
Warning: Simulation tolerance relaxed to achieve convergence from 2.0270646590829914e-04 to 2.0270646590830015e-04 seconds.
Warning: Simulation tolerance relaxed to achieve convergence from 2.0270646590830015e-04 to 2.0270646590830115e-04 seconds.
Warning: Simulation tolerance relaxed to achieve convergence from 2.0270646590830115e-04 to 2.0270646590830215e-04 seconds.
Warning: Simulation tolerance relaxed to achieve convergence from 2.0270646590830215e-04 to 2.0270646590830316e-04 seconds.
Warning: Simulation tolerance relaxed to achieve convergence from 2.0270646590830316e-04 to 2.0270646590830416e-04 seconds.
Warning: Simulation tolerance relaxed to achieve convergence from 2.0270646590830416e-04 to 2.0270646590830516e-04 seconds.
Warning: Simulation tolerance relaxed to achieve convergence from 2.0270646590830516e-04 to 2.0270646590830616e-04 seconds.
Warning: Simulation tolerance relaxed to achieve convergence from 2.0270646590830616e-04 to 2.0270646590830717e-04 seconds.
Warning: Simulation tolerance relaxed to achieve convergence from 2.0270646590830717e-04 to 2.0270646590830817e-04 seconds.
Warning: Simulation tolerance relaxed to achieve convergence from 2.0270646590830817e-04 to 2.0270646590830917e-04 seconds.
Warning: Simulation tolerance relaxed to achieve convergence from 2.0270646590830917e-04 to 2.0270646590831018e-04 seconds.
Warning: Simulation tolerance relaxed to achieve convergence from 2.0270646590831018e-04 to 2.0270646590831118e-04 seconds.
Warning: Simulation tolerance relaxed to achieve convergence from 2.0270646590831118e-04 to 2.0270646590831218e-04 seconds.
Warning: Simulation tolerance relaxed to achieve convergence from 2.0270646590831218e-04 to 2.0270646590831318e-04 seconds.
Warning: Simulation tolerance relaxed to achieve convergence from 2.0270646590831318e-04 to 2.0270646590831419e-04 seconds.
Warning: Simulation tolerance relaxed to achieve convergence from 2.0270646590831419e-04 to 2.0270646590831519e-04 seconds.
Warning: Simulation tolerance relaxed to achieve convergence from 2.0270646590831519e-04 to 2.0270646590831619e-04 seconds.
Warning: Simulation tolerance relaxed to achieve convergence from 2.0270646590831619e-04 to 2.0270646590831720e-04 seconds.
Warning: Simulation tolerance relaxed to achieve convergence from 2.0270646590831720e-04 to 2.0270646590831820e-04 seconds.
Warning: Simulation tolerance relaxed to achieve convergence from 2.0270646590831820e-04 to 2.0270646590831920e-04 seconds.
Warning: Simulation tolerance relaxed to achieve convergence from 2.0270646590831920e-04 to 2.0270646590832020e-04 seconds.
Warning: Simulation tolerance relaxed to achieve convergence from 2.0270646590832020e-04 to 2.0270646590832121e-04 seconds.
Warning: Simulation tolerance relaxed to achieve convergence from 2.0270646590832121e-04 to 2.0270646590832221e-04 seconds.
Warning: Simulation tolerance relaxed to achieve convergence from 2.0270646590832221e-04 to 2.0270646590832321e-04 seconds.
Warning: Simulation tolerance relaxed to achieve convergence from 2.0270646590832321e-04 to 2.0270646590832422e-04 seconds.
Warning: Simulation tolerance relaxed to achieve convergence from 2.0270646590832422e-04 to 2.0270646590832522e-04 seconds.
Warning: Simulation tolerance relaxed to achieve convergence from 2.0270646590832522e-04 to 2.0270646590832622e-04 seconds.
Warning: Simulation tolerance relaxed to achieve convergence from 2.0270646590832622e-04 to 2.0270646590832723e-04 seconds.
Warning: Simulation tolerance relaxed to achieve convergence from 2.0270646590832723e-04 to 2.0270646590832823e-04 seconds.
Warning: Simulation tolerance relaxed to achieve convergence from 2.0270646590832823e-04 to 2.0270646590832923e-04 seconds.
Warning: Simulation tolerance relaxed to achieve convergence from 2.0270646590832923e-04 to 2.0270646590833023e-04 seconds.
Warning: Simulation tolerance relaxed to achieve convergence from 2.0270646590833023e-04 to 2.0270646590833124e-04 seconds.
Warning: Simulation tolerance relaxed to achieve convergence from 2.0270646590833124e-04 to 2.0270646590833224e-04 seconds.
Warning: Simulation tolerance relaxed to achieve convergence from 2.0270646590833224e-04 to 2.0270646590833324e-04 seconds.
Warning: Simulation tolerance relaxed to achieve convergence from 2.0270646590833324e-04 to 2.0270646590833425e-04 seconds.
Warning: Simulation tolerance relaxed to achieve convergence from 2.0270646590833425e-04 to 2.0270646590833525e-04 seconds.
Warning: Simulation tolerance relaxed to achieve convergence from 2.0270646590833525e-04 to 2.0270646590833625e-04 seconds.
Warning: Simulation tolerance relaxed to achieve convergence from 2.0270646590833625e-04 to 2.0270646590833725e-04 seconds.
Warning: Simulation tolerance relaxed to achieve convergence from 2.0270646590833725e-04 to 2.0270646590833826e-04 seconds.
Warning: Simulation tolerance relaxed to achieve convergence from 2.0270646590833826e-04 to 2.0270646590833926e-04 seconds.
Warning: Simulation tolerance relaxed to achieve convergence from 2.0270646590833926e-04 to 2.0270646590834026e-04 seconds.
Warning: Simulation tolerance relaxed to achieve convergence from 2.0270646590834026e-04 to 2.0270646590834127e-04 seconds.
Warning: Simulation tolerance relaxed to achieve convergence from 2.0270646590834127e-04 to 2.0270646590834227e-04 seconds.
Warning: Simulation tolerance relaxed to achieve convergence from 2.0270646590834227e-04 to 2.0270646590834327e-04 seconds.
Warning: Simulation tolerance relaxed to achieve convergence from 2.0270646590834327e-04 to 2.0270646590834427e-04 seconds.
Warning: Simulation tolerance relaxed to achieve convergence from 2.0270646590834427e-04 to 2.0270646590834528e-04 seconds.
Warning: Simulation tolerance relaxed to achieve convergence from 2.0270646590834528e-04 to 2.0270646590834628e-04 seconds.
Warning: Simulation tolerance relaxed to achieve convergence from 2.0270646590834628e-04 to 2.0270646590834728e-04 seconds.
Warning: Simulation tolerance relaxed to achieve convergence from 2.0270646590834728e-04 to 2.0270646590834829e-04 seconds.
Warning: Simulation tolerance relaxed to achieve convergence from 2.0270646590834829e-04 to 2.0270646590834929e-04 seconds.
Warning: Simulation tolerance relaxed to achieve convergence from 2.0270646590834929e-04 to 2.0270646590835029e-04 seconds.
Warning: Simulation tolerance relaxed to achieve convergence from 2.0270646590835029e-04 to 2.0270646590835129e-04 seconds.
Warning: Simulation tolerance relaxed to achieve convergence from 2.0270646590835129e-04 to 2.0270646590835230e-04 seconds.
Warning: Simulation tolerance relaxed to achieve convergence from 2.0270646590835230e-04 to 2.0270646590835330e-04 seconds.
Warning: Simulation tolerance relaxed to achieve convergence from 2.0270646590835330e-04 to 2.0270646590835430e-04 seconds.
Warning: Simulation tolerance relaxed to achieve convergence from 2.0270646590835430e-04 to 2.0270646590835531e-04 seconds.
Warning: Simulation tolerance relaxed to achieve convergence from 2.0270646590835531e-04 to 2.0270646590835631e-04 seconds.
Warning: Simulation tolerance relaxed to achieve convergence from 2.0270646590835631e-04 to 2.0270646590835731e-04 seconds.
Warning: Simulation tolerance relaxed to achieve convergence from 2.0270646590835731e-04 to 2.0270646590835831e-04 seconds.
Warning: Simulation tolerance relaxed to achieve convergence from 2.0270646590835831e-04 to 2.0270646590835932e-04 seconds.
Warning: Simulation tolerance relaxed to achieve convergence from 2.0270646590835932e-04 to 2.0270646590836032e-04 seconds.
Warning: Simulation tolerance relaxed to achieve convergence from 2.0270646590836032e-04 to 2.0270646590836132e-04 seconds.
Warning: Simulation tolerance relaxed to achieve convergence from 2.0270646590836132e-04 to 2.0270646590836233e-04 seconds.
Warning: Simulation tolerance relaxed to achieve convergence from 2.0270646590836233e-04 to 2.0270646590836333e-04 seconds.
Warning: Simulation tolerance relaxed to achieve convergence from 2.0270646590836333e-04 to 2.0270646590836433e-04 seconds.
Warning: Simulation tolerance relaxed to achieve convergence from 2.0270646590836433e-04 to 2.0270646590836533e-04 seconds.
Warning: Simulation tolerance relaxed to achieve convergence from 2.0270646590836533e-04 to 2.0270646590836634e-04 seconds.
Warning: Simulation tolerance relaxed to achieve convergence from 2.0270646590836634e-04 to 2.0270646590836734e-04 seconds.
Warning: Simulation tolerance relaxed to achieve convergence from 2.0270646590836734e-04 to 2.0270646590836834e-04 seconds.
Warning: Simulation tolerance relaxed to achieve convergence from 2.0270646590836834e-04 to 2.0270646590836935e-04 seconds.
Warning: Simulation tolerance relaxed to achieve convergence from 2.0270646590836935e-04 to 2.0270646590837035e-04 seconds.
Warning: Simulation tolerance relaxed to achieve convergence from 2.0270646590837035e-04 to 2.0270646590837135e-04 seconds.
Warning: Simulation tolerance relaxed to achieve convergence from 2.0270646590837135e-04 to 2.0270646590837235e-04 seconds.
Warning: Simulation tolerance relaxed to achieve convergence from 2.0270646590837235e-04 to 2.0270646590837336e-04 seconds.
Warning: Simulation tolerance relaxed to achieve convergence from 2.0270646590837336e-04 to 2.0270646590837436e-04 seconds.
Warning: Simulation tolerance relaxed to achieve convergence from 2.0270646590837436e-04 to 2.0270646590837536e-04 seconds.
Warning: Simulation tolerance relaxed to achieve convergence from 2.0270646590837536e-04 to 2.0270646590837637e-04 seconds.
Warning: Simulation tolerance relaxed to achieve convergence from 2.0270646590837637e-04 to 2.0270646590837737e-04 seconds.
Warning: Simulation tolerance relaxed to achieve convergence from 2.0270646590837737e-04 to 2.0270646590837837e-04 seconds.
Warning: Simulation tolerance relaxed to achieve convergence from 2.0270646590837837e-04 to 2.0270646590837938e-04 seconds.
Warning: Simulation tolerance relaxed to achieve convergence from 2.0270646590837938e-04 to 2.0270646590838038e-04 seconds.
Warning: Simulation tolerance relaxed to achieve convergence from 2.0270646590838038e-04 to 2.0270646590838138e-04 seconds.
Warning: Simulation tolerance relaxed to achieve convergence from 2.0270646590838138e-04 to 2.0270646590838238e-04 seconds.
Warning: Simulation tolerance relaxed to achieve convergence from 2.0270646590838238e-04 to 2.0270646590838339e-04 seconds.
Warning: Simulation tolerance relaxed to achieve convergence from 2.0270646590838339e-04 to 2.0270646590838439e-04 seconds.
Warning: Simulation tolerance relaxed to achieve convergence from 2.0270646590838439e-04 to 2.0270646590838539e-04 seconds.
Warning: Simulation tolerance relaxed to achieve convergence from 2.0270646590838539e-04 to 2.0270646590838640e-04 seconds.
Warning: Simulation tolerance relaxed to achieve convergence from 2.0270646590838640e-04 to 2.0270646590838740e-04 seconds.
Warning: Simulation tolerance relaxed to achieve convergence from 2.0270646590838740e-04 to 2.0270646590838840e-04 seconds.
Warning: Simulation tolerance relaxed to achieve convergence from 2.0270646590838840e-04 to 2.0270646590838940e-04 seconds.
Warning: Simulation tolerance relaxed to achieve convergence from 2.0270646590838940e-04 to 2.0270646590839041e-04 seconds.
Warning: Simulation tolerance relaxed to achieve convergence from 2.0270646590839041e-04 to 2.0270646590839141e-04 seconds.
Warning: Simulation tolerance relaxed to achieve convergence from 2.0270646590839141e-04 to 2.0270646590839241e-04 seconds.
Warning: Simulation tolerance relaxed to achieve convergence from 2.0270646590839241e-04 to 2.0270646590839342e-04 seconds.
Warning: Simulation tolerance relaxed to achieve convergence from 2.0270646590839342e-04 to 2.0270646590839442e-04 seconds.
Warning: Simulation tolerance relaxed to achieve convergence from 2.0270646590839442e-04 to 2.0270646590839542e-04 seconds.
Warning: Simulation tolerance relaxed to achieve convergence from 2.0270646590839542e-04 to 2.0270646590839642e-04 seconds.
Warning: Simulation tolerance relaxed to achieve convergence from 2.0270646590839642e-04 to 2.0270646590839743e-04 seconds.
Warning: Simulation tolerance relaxed to achieve convergence from 2.0270646590839743e-04 to 2.0270646590839843e-04 seconds.
Warning: Simulation tolerance relaxed to achieve convergence from 2.0270646590839843e-04 to 2.0270646590839943e-04 seconds.
Warning: Simulation tolerance relaxed to achieve convergence from 2.0270646590839943e-04 to 2.0270646590840044e-04 seconds.
Warning: Simulation tolerance relaxed to achieve convergence from 2.0270646590840044e-04 to 2.0270646590840144e-04 seconds.
Warning: Simulation tolerance relaxed to achieve convergence from 2.0270646590840144e-04 to 2.0270646590840244e-04 seconds.
Warning: Simulation tolerance relaxed to achieve convergence from 2.0270646590840244e-04 to 2.0270646590840344e-04 seconds.
Warning: Simulation tolerance relaxed to achieve convergence from 2.0270646590840344e-04 to 2.0270646590840445e-04 seconds.
Warning: Simulation tolerance relaxed to achieve convergence from 2.0270646590840445e-04 to 2.0270646590840545e-04 seconds.
Warning: Simulation tolerance relaxed to achieve convergence from 2.0270646590840545e-04 to 2.0270646590840645e-04 seconds.
Warning: Simulation tolerance relaxed to achieve convergence from 2.0270646590840645e-04 to 2.0270646590840746e-04 seconds.
Warning: Simulation tolerance relaxed to achieve convergence from 2.0270646590840746e-04 to 2.0270646590840846e-04 seconds.
Warning: Simulation tolerance relaxed to achieve convergence from 2.0270646590840846e-04 to 2.0270646590840946e-04 seconds.
Warning: Simulation tolerance relaxed to achieve convergence from 2.0270646590840946e-04 to 2.0270646590841046e-04 seconds.
Warning: Simulation tolerance relaxed to achieve convergence from 2.0270646590841046e-04 to 2.0270646590841147e-04 seconds.
Warning: Simulation tolerance relaxed to achieve convergence from 2.0270646590841147e-04 to 2.0270646590841247e-04 seconds.
Warning: Simulation tolerance relaxed to achieve convergence from 2.0270646590841247e-04 to 2.0270646590841347e-04 seconds.
Warning: Simulation tolerance relaxed to achieve convergence from 2.0270646590841347e-04 to 2.0270646590841448e-04 seconds.
Warning: Simulation tolerance relaxed to achieve convergence from 2.0270646590841448e-04 to 2.0270646590841548e-04 seconds.
Warning: Simulation tolerance relaxed to achieve convergence from 2.0270646590841548e-04 to 2.0270646590841648e-04 seconds.
Warning: Simulation tolerance relaxed to achieve convergence from 2.0270646590841648e-04 to 2.0270646590841748e-04 seconds.
Warning: Simulation tolerance relaxed to achieve convergence from 2.0270646590841748e-04 to 2.0270646590841849e-04 seconds.
Warning: Simulation tolerance relaxed to achieve convergence from 2.0270646590841849e-04 to 2.0270646590841949e-04 seconds.
Warning: Simulation tolerance relaxed to achieve convergence from 2.0270646590841949e-04 to 2.0270646590842049e-04 seconds.
Warning: Simulation tolerance relaxed to achieve convergence from 2.0270646590842049e-04 to 2.0270646590842150e-04 seconds.
Warning: Simulation tolerance relaxed to achieve convergence from 2.0270646590842150e-04 to 2.0270646590842250e-04 seconds.
Warning: Simulation tolerance relaxed to achieve convergence from 2.0270646590842250e-04 to 2.0270646590842350e-04 seconds.
Warning: Simulation tolerance relaxed to achieve convergence from 2.0270646590842350e-04 to 2.0270646590842451e-04 seconds.
Warning: Simulation tolerance relaxed to achieve convergence from 2.0270646590842451e-04 to 2.0270646590842551e-04 seconds.
Warning: Simulation tolerance relaxed to achieve convergence from 2.0270646590842551e-04 to 2.0270646590842651e-04 seconds.
Warning: Simulation tolerance relaxed to achieve convergence from 2.0270646590842651e-04 to 2.0270646590842751e-04 seconds.
Warning: Simulation tolerance relaxed to achieve convergence from 2.0270646590842751e-04 to 2.0270646590842852e-04 seconds.
Warning: Simulation tolerance relaxed to achieve convergence from 2.0270646590842852e-04 to 2.0270646590842952e-04 seconds.
Warning: Simulation tolerance relaxed to achieve convergence from 2.0270646590842952e-04 to 2.0270646590843052e-04 seconds.
Warning: Simulation tolerance relaxed to achieve convergence from 2.0270646590843052e-04 to 2.0270646590843153e-04 seconds.
Warning: Simulation tolerance relaxed to achieve convergence from 2.0270646590843153e-04 to 2.0270646590843253e-04 seconds.
Warning: Simulation tolerance relaxed to achieve convergence from 2.0270646590843253e-04 to 2.0270646590843353e-04 seconds.
Warning: Simulation tolerance relaxed to achieve convergence from 2.0270646590843353e-04 to 2.0270646590843453e-04 seconds.
Warning: Simulation tolerance relaxed to achieve convergence from 2.0270646590843453e-04 to 2.0270646590843554e-04 seconds.
Warning: Simulation tolerance relaxed to achieve convergence from 2.0270646590843554e-04 to 2.0270646590843654e-04 seconds.
Warning: Simulation tolerance relaxed to achieve convergence from 2.0270646590843654e-04 to 2.0270646590843754e-04 seconds.
Warning: Simulation tolerance relaxed to achieve convergence from 2.0270646590843754e-04 to 2.0270646590843855e-04 seconds.
Warning: Simulation tolerance relaxed to achieve convergence from 2.0270646590843855e-04 to 2.0270646590843955e-04 seconds.
Warning: Simulation tolerance relaxed to achieve convergence from 2.0270646590843955e-04 to 2.0270646590844055e-04 seconds.
Warning: Simulation tolerance relaxed to achieve convergence from 2.0270646590844055e-04 to 2.0270646590844155e-04 seconds.
Warning: Simulation tolerance relaxed to achieve convergence from 2.0270646590844155e-04 to 2.0270646590844256e-04 seconds.
Warning: Simulation tolerance relaxed to achieve convergence from 2.0270646590844256e-04 to 2.0270646590844356e-04 seconds.
Warning: Simulation tolerance relaxed to achieve convergence from 2.0270646590844356e-04 to 2.0270646590844456e-04 seconds.
Warning: Simulation tolerance relaxed to achieve convergence from 2.0270646590844456e-04 to 2.0270646590844557e-04 seconds.
Warning: Simulation tolerance relaxed to achieve convergence from 2.0270646590844557e-04 to 2.0270646590844657e-04 seconds.
Warning: Simulation tolerance relaxed to achieve convergence from 2.0270646590844657e-04 to 2.0270646590844757e-04 seconds.
Warning: Simulation tolerance relaxed to achieve convergence from 2.0270646590844757e-04 to 2.0270646590844857e-04 seconds.
Warning: Simulation tolerance relaxed to achieve convergence from 2.0270646590844857e-04 to 2.0270646590844958e-04 seconds.
Warning: Simulation tolerance relaxed to achieve convergence from 2.0270646590844958e-04 to 2.0270646590845058e-04 seconds.
Warning: Simulation tolerance relaxed to achieve convergence from 2.0270646590845058e-04 to 2.0270646590845158e-04 seconds.
Warning: Simulation tolerance relaxed to achieve convergence from 2.0270646590845158e-04 to 2.0270646590845259e-04 seconds.
Warning: Simulation tolerance relaxed to achieve convergence from 2.0270646590845259e-04 to 2.0270646590845359e-04 seconds.
Warning: Simulation tolerance relaxed to achieve convergence from 2.0270646590845359e-04 to 2.0270646590845459e-04 seconds.
Warning: Simulation tolerance relaxed to achieve convergence from 2.0270646590845459e-04 to 2.0270646590845559e-04 seconds.
Warning: Simulation tolerance relaxed to achieve convergence from 2.0270646590845559e-04 to 2.0270646590845660e-04 seconds.
Warning: Simulation tolerance relaxed to achieve convergence from 2.0270646590845660e-04 to 2.0270646590845760e-04 seconds.
Warning: Simulation tolerance relaxed to achieve convergence from 2.0270646590845760e-04 to 2.0270646590845860e-04 seconds.
Warning: Simulation tolerance relaxed to achieve convergence from 2.0270646590845860e-04 to 2.0270646590845961e-04 seconds.
Warning: Simulation tolerance relaxed to achieve convergence from 2.0270646590845961e-04 to 2.0270646590846061e-04 seconds.
Warning: Simulation tolerance relaxed to achieve convergence from 2.0270646590846061e-04 to 2.0270646590846161e-04 seconds.
Warning: Simulation tolerance relaxed to achieve convergence from 2.0270646590846161e-04 to 2.0270646590846261e-04 seconds.
Warning: Simulation tolerance relaxed to achieve convergence from 2.0270646590846261e-04 to 2.0270646590846362e-04 seconds.
Warning: Simulation tolerance relaxed to achieve convergence from 2.0270646590846362e-04 to 2.0270646590846462e-04 seconds.
Warning: Simulation tolerance relaxed to achieve convergence from 2.0270646590846462e-04 to 2.0270646590846562e-04 seconds.
Warning: Simulation tolerance relaxed to achieve convergence from 2.0270646590846562e-04 to 2.0270646590846663e-04 seconds.
Warning: Simulation tolerance relaxed to achieve convergence from 2.0270646590846663e-04 to 2.0270646590846763e-04 seconds.
Warning: Simulation tolerance relaxed to achieve convergence from 2.0270646590846763e-04 to 2.0270646590846863e-04 seconds.
Warning: Simulation tolerance relaxed to achieve convergence from 2.0270646590846863e-04 to 2.0270646590846963e-04 seconds.
Warning: Simulation tolerance relaxed to achieve convergence from 2.0270646590846963e-04 to 2.0270646590847064e-04 seconds.
Warning: Simulation tolerance relaxed to achieve convergence from 2.0270646590847064e-04 to 2.0270646590847164e-04 seconds.
Warning: Simulation tolerance relaxed to achieve convergence from 2.0270646590847164e-04 to 2.0270646590847264e-04 seconds.
Warning: Simulation tolerance relaxed to achieve convergence from 2.0270646590847264e-04 to 2.0270646590847365e-04 seconds.
Warning: Simulation tolerance relaxed to achieve convergence from 2.0270646590847365e-04 to 2.0270646590847465e-04 seconds.
Warning: Simulation tolerance relaxed to achieve convergence from 2.0270646590847465e-04 to 2.0270646590847565e-04 seconds.
Warning: Simulation tolerance relaxed to achieve convergence from 2.0270646590847565e-04 to 2.0270646590847666e-04 seconds.
Warning: Simulation tolerance relaxed to achieve convergence from 2.0270646590847666e-04 to 2.0270646590847766e-04 seconds.
Warning: Simulation tolerance relaxed to achieve convergence from 2.0270646590847766e-04 to 2.0270646590847866e-04 seconds.
Warning: Simulation tolerance relaxed to achieve convergence from 2.0270646590847866e-04 to 2.0270646590847966e-04 seconds.
Warning: Simulation tolerance relaxed to achieve convergence from 2.0270646590847966e-04 to 2.0270646590848067e-04 seconds.
Warning: Simulation tolerance relaxed to achieve convergence from 2.0270646590848067e-04 to 2.0270646590848167e-04 seconds.
Warning: Simulation tolerance relaxed to achieve convergence from 2.0270646590848167e-04 to 2.0270646590848267e-04 seconds.
Warning: Simulation tolerance relaxed to achieve convergence from 2.0270646590848267e-04 to 2.0270646590848368e-04 seconds.
Warning: Simulation tolerance relaxed to achieve convergence from 2.0270646590848368e-04 to 2.0270646590848468e-04 seconds.
Warning: Simulation tolerance relaxed to achieve convergence from 2.0270646590848468e-04 to 2.0270646590848568e-04 seconds.
Warning: Simulation tolerance relaxed to achieve convergence from 2.0270646590848568e-04 to 2.0270646590848668e-04 seconds.
Warning: Simulation tolerance relaxed to achieve convergence from 2.0270646590848668e-04 to 2.0270646590848769e-04 seconds.
Warning: Simulation tolerance relaxed to achieve convergence from 2.0270646590848769e-04 to 2.0270646590848869e-04 seconds.
Warning: Simulation tolerance relaxed to achieve convergence from 2.0270646590848869e-04 to 2.0270646590848969e-04 seconds.
Warning: Simulation tolerance relaxed to achieve convergence from 2.0270646590848969e-04 to 2.0270646590849070e-04 seconds.
Warning: Simulation tolerance relaxed to achieve convergence from 2.0270646590849070e-04 to 2.0270646590849170e-04 seconds.
Warning: Simulation tolerance relaxed to achieve convergence from 2.0270646590849170e-04 to 2.0270646590849270e-04 seconds.
Warning: Simulation tolerance relaxed to achieve convergence from 2.0270646590849270e-04 to 2.0270646590849370e-04 seconds.
Warning: Simulation tolerance relaxed to achieve convergence from 2.0270646590849370e-04 to 2.0270646590849471e-04 seconds.
Warning: Simulation tolerance relaxed to achieve convergence from 2.0270646590849471e-04 to 2.0270646590849571e-04 seconds.
Warning: Simulation tolerance relaxed to achieve convergence from 2.0270646590849571e-04 to 2.0270646590849671e-04 seconds.
Warning: Simulation tolerance relaxed to achieve convergence from 2.0270646590849671e-04 to 2.0270646590849772e-04 seconds.
Warning: Simulation tolerance relaxed to achieve convergence from 2.0270646590849772e-04 to 2.0270646590849872e-04 seconds.
Warning: Simulation tolerance relaxed to achieve convergence from 2.0270646590849872e-04 to 2.0270646590849972e-04 seconds.
Warning: Simulation tolerance relaxed to achieve convergence from 2.0270646590849972e-04 to 2.0270646590850072e-04 seconds.
Warning: Simulation tolerance relaxed to achieve convergence from 2.0270646590850072e-04 to 2.0270646590850173e-04 seconds.
Warning: Simulation tolerance relaxed to achieve convergence from 2.0270646590850173e-04 to 2.0270646590850273e-04 seconds.
Warning: Simulation tolerance relaxed to achieve convergence from 2.0270646590850273e-04 to 2.0270646590850373e-04 seconds.
Warning: Simulation tolerance relaxed to achieve convergence from 2.0270646590850373e-04 to 2.0270646590850474e-04 seconds.
Warning: Simulation tolerance relaxed to achieve convergence from 2.0270646590850474e-04 to 2.0270646590850574e-04 seconds.
Warning: Simulation tolerance relaxed to achieve convergence from 2.0270646590850574e-04 to 2.0270646590850674e-04 seconds.
Warning: Simulation tolerance relaxed to achieve convergence from 2.0270646590850674e-04 to 2.0270646590850774e-04 seconds.
Warning: Simulation tolerance relaxed to achieve convergence from 2.0270646590850774e-04 to 2.0270646590850875e-04 seconds.
Warning: Simulation tolerance relaxed to achieve convergence from 2.0270646590850875e-04 to 2.0270646590850975e-04 seconds.
Warning: Simulation tolerance relaxed to achieve convergence from 2.0270646590850975e-04 to 2.0270646590851075e-04 seconds.
Warning: Simulation tolerance relaxed to achieve convergence from 2.0270646590851075e-04 to 2.0270646590851176e-04 seconds.
Warning: Simulation tolerance relaxed to achieve convergence from 2.0270646590851176e-04 to 2.0270646590851276e-04 seconds.
Warning: Simulation tolerance relaxed to achieve convergence from 2.0270646590851276e-04 to 2.0270646590851376e-04 seconds.
Warning: Simulation tolerance relaxed to achieve convergence from 2.0270646590851376e-04 to 2.0270646590851476e-04 seconds.
Warning: Simulation tolerance relaxed to achieve convergence from 2.0270646590851476e-04 to 2.0270646590851577e-04 seconds.
Warning: Simulation tolerance relaxed to achieve convergence from 2.0270646590851577e-04 to 2.0270646590851677e-04 seconds.
Warning: Simulation tolerance relaxed to achieve convergence from 2.0270646590851677e-04 to 2.0270646590851777e-04 seconds.
Warning: Simulation tolerance relaxed to achieve convergence from 2.0270646590851777e-04 to 2.0270646590851878e-04 seconds.
Warning: Simulation tolerance relaxed to achieve convergence from 2.0270646590851878e-04 to 2.0270646590851978e-04 seconds.
Warning: Simulation tolerance relaxed to achieve convergence from 2.0270646590851978e-04 to 2.0270646590852078e-04 seconds.
Warning: Simulation tolerance relaxed to achieve convergence from 2.0270646590852078e-04 to 2.0270646590852179e-04 seconds.
Warning: Simulation tolerance relaxed to achieve convergence from 2.0270646590852179e-04 to 2.0270646590852279e-04 seconds.
Warning: Simulation tolerance relaxed to achieve convergence from 2.0270646590852279e-04 to 2.0270646590852379e-04 seconds.
Warning: Simulation tolerance relaxed to achieve convergence from 2.0270646590852379e-04 to 2.0270646590852479e-04 seconds.
Warning: Simulation tolerance relaxed to achieve convergence from 2.0270646590852479e-04 to 2.0270646590852580e-04 seconds.
Warning: Simulation tolerance relaxed to achieve convergence from 2.0270646590852580e-04 to 2.0270646590852680e-04 seconds.
Warning: Simulation tolerance relaxed to achieve convergence from 2.0270646590852680e-04 to 2.0270646590852780e-04 seconds.
Warning: Simulation tolerance relaxed to achieve convergence from 2.0270646590852780e-04 to 2.0270646590852881e-04 seconds.
Warning: Simulation tolerance relaxed to achieve convergence from 2.0270646590852881e-04 to 2.0270646590852981e-04 seconds.
Warning: Simulation tolerance relaxed to achieve convergence from 2.0270646590852981e-04 to 2.0270646590853081e-04 seconds.
Warning: Simulation tolerance relaxed to achieve convergence from 2.0270646590853081e-04 to 2.0270646590853181e-04 seconds.
Warning: Simulation tolerance relaxed to achieve convergence from 2.0270646590853181e-04 to 2.0270646590853282e-04 seconds.
Warning: Simulation tolerance relaxed to achieve convergence from 2.0270646590853282e-04 to 2.0270646590853382e-04 seconds.
Warning: Simulation tolerance relaxed to achieve convergence from 2.0270646590853382e-04 to 2.0270646590853482e-04 seconds.
Warning: Simulation tolerance relaxed to achieve convergence from 2.0270646590853482e-04 to 2.0270646590853583e-04 seconds.
Warning: Simulation tolerance relaxed to achieve convergence from 2.0270646590853583e-04 to 2.0270646590853683e-04 seconds.
Warning: Simulation tolerance relaxed to achieve convergence from 2.0270646590853683e-04 to 2.0270646590853783e-04 seconds.
Warning: Simulation tolerance relaxed to achieve convergence from 2.0270646590853783e-04 to 2.0270646590853883e-04 seconds.
Warning: Simulation tolerance relaxed to achieve convergence from 2.0270646590853883e-04 to 2.0270646590853984e-04 seconds.
Warning: Simulation tolerance relaxed to achieve convergence from 2.0270646590853984e-04 to 2.0270646590854084e-04 seconds.
Warning: Simulation tolerance relaxed to achieve convergence from 2.0270646590854084e-04 to 2.0270646590854184e-04 seconds.
Warning: Simulation tolerance relaxed to achieve convergence from 2.0270646590854184e-04 to 2.0270646590854285e-04 seconds.
Warning: Simulation tolerance relaxed to achieve convergence from 2.0270646590854285e-04 to 2.0270646590854385e-04 seconds.
Warning: Simulation tolerance relaxed to achieve convergence from 2.0270646590854385e-04 to 2.0270646590854485e-04 seconds.
Warning: Simulation tolerance relaxed to achieve convergence from 2.0270646590854485e-04 to 2.0270646590854585e-04 seconds.
Warning: Simulation tolerance relaxed to achieve convergence from 2.0270646590854585e-04 to 2.0270646590854686e-04 seconds.
Warning: Simulation tolerance relaxed to achieve convergence from 2.0270646590854686e-04 to 2.0270646590854786e-04 seconds.
Warning: Simulation tolerance relaxed to achieve convergence from 2.0270646590854786e-04 to 2.0270646590854886e-04 seconds.
Warning: Simulation tolerance relaxed to achieve convergence from 2.0270646590854886e-04 to 2.0270646590854987e-04 seconds.
Warning: Simulation tolerance relaxed to achieve convergence from 2.0270646590854987e-04 to 2.0270646590855087e-04 seconds.
Warning: Simulation tolerance relaxed to achieve convergence from 2.0270646590855087e-04 to 2.0270646590855187e-04 seconds.
Warning: Simulation tolerance relaxed to achieve convergence from 2.0270646590855187e-04 to 2.0270646590855287e-04 seconds.
Warning: Simulation tolerance relaxed to achieve convergence from 2.0270646590855287e-04 to 2.0270646590855388e-04 seconds.
Warning: Simulation tolerance relaxed to achieve convergence from 2.0270646590855388e-04 to 2.0270646590855488e-04 seconds.
Warning: Simulation tolerance relaxed to achieve convergence from 2.0270646590855488e-04 to 2.0270646590855588e-04 seconds.
Warning: Simulation tolerance relaxed to achieve convergence from 2.0270646590855588e-04 to 2.0270646590855689e-04 seconds.
Warning: Simulation tolerance relaxed to achieve convergence from 2.0270646590855689e-04 to 2.0270646590855789e-04 seconds.
Warning: Simulation tolerance relaxed to achieve convergence from 2.0270646590855789e-04 to 2.0270646590855889e-04 seconds.
Warning: Simulation tolerance relaxed to achieve convergence from 2.0270646590855889e-04 to 2.0270646590855989e-04 seconds.
Warning: Simulation tolerance relaxed to achieve convergence from 2.0270646590855989e-04 to 2.0270646590856090e-04 seconds.
Warning: Simulation tolerance relaxed to achieve convergence from 2.0270646590856090e-04 to 2.0270646590856190e-04 seconds.
Warning: Simulation tolerance relaxed to achieve convergence from 2.0270646590856190e-04 to 2.0270646590856290e-04 seconds.
Warning: Simulation tolerance relaxed to achieve convergence from 2.0270646590856290e-04 to 2.0270646590856391e-04 seconds.
Warning: Simulation tolerance relaxed to achieve convergence from 2.0270646590856391e-04 to 2.0270646590856491e-04 seconds.
Warning: Simulation tolerance relaxed to achieve convergence from 2.0270646590856491e-04 to 2.0270646590856591e-04 seconds.
Warning: Simulation tolerance relaxed to achieve convergence from 2.0270646590856591e-04 to 2.0270646590856692e-04 seconds.
Warning: Simulation tolerance relaxed to achieve convergence from 2.0270646590856692e-04 to 2.0270646590856792e-04 seconds.
Warning: Simulation tolerance relaxed to achieve convergence from 2.0270646590856792e-04 to 2.0270646590856892e-04 seconds.
Warning: Simulation tolerance relaxed to achieve convergence from 2.0270646590856892e-04 to 2.0270646590856992e-04 seconds.
Warning: Simulation tolerance relaxed to achieve convergence from 2.0270646590856992e-04 to 2.0270646590857093e-04 seconds.
Warning: Simulation tolerance relaxed to achieve convergence from 2.0270646590857093e-04 to 2.0270646590857193e-04 seconds.
Warning: Simulation tolerance relaxed to achieve convergence from 2.0270646590857193e-04 to 2.0270646590857293e-04 seconds.
Warning: Simulation tolerance relaxed to achieve convergence from 2.0270646590857293e-04 to 2.0270646590857394e-04 seconds.
Warning: Simulation tolerance relaxed to achieve convergence from 2.0270646590857394e-04 to 2.0270646590857494e-04 seconds.
Warning: Simulation tolerance relaxed to achieve convergence from 2.0270646590857494e-04 to 2.0270646590857594e-04 seconds.
Warning: Simulation tolerance relaxed to achieve convergence from 2.0270646590857594e-04 to 2.0270646590857694e-04 seconds.
Warning: Simulation tolerance relaxed to achieve convergence from 2.0270646590857694e-04 to 2.0270646590857795e-04 seconds.
Warning: Simulation tolerance relaxed to achieve convergence from 2.0270646590857795e-04 to 2.0270646590857895e-04 seconds.
Warning: Simulation tolerance relaxed to achieve convergence from 2.0270646590857895e-04 to 2.0270646590857995e-04 seconds.
Warning: Simulation tolerance relaxed to achieve convergence from 2.0270646590857995e-04 to 2.0270646590858096e-04 seconds.
Warning: Simulation tolerance relaxed to achieve convergence from 2.0270646590858096e-04 to 2.0270646590858196e-04 seconds.
Warning: Simulation tolerance relaxed to achieve convergence from 2.0270646590858196e-04 to 2.0270646590858296e-04 seconds.
Warning: Simulation tolerance relaxed to achieve convergence from 2.0270646590858296e-04 to 2.0270646590858396e-04 seconds.
Warning: Simulation tolerance relaxed to achieve convergence from 2.0270646590858396e-04 to 2.0270646590858497e-04 seconds.
Warning: Simulation tolerance relaxed to achieve convergence from 2.0270646590858497e-04 to 2.0270646590858597e-04 seconds.
Warning: Simulation tolerance relaxed to achieve convergence from 2.0270646590858597e-04 to 2.0270646590858697e-04 seconds.
Warning: Simulation tolerance relaxed to achieve convergence from 2.0270646590858697e-04 to 2.0270646590858798e-04 seconds.
Warning: Simulation tolerance relaxed to achieve convergence from 2.0270646590858798e-04 to 2.0270646590858898e-04 seconds.
Warning: Simulation tolerance relaxed to achieve convergence from 2.0270646590858898e-04 to 2.0270646590858998e-04 seconds.
Warning: Simulation tolerance relaxed to achieve convergence from 2.0270646590858998e-04 to 2.0270646590859098e-04 seconds.
Warning: Simulation tolerance relaxed to achieve convergence from 2.0270646590859098e-04 to 2.0270646590859199e-04 seconds.
Warning: Simulation tolerance relaxed to achieve convergence from 2.0270646590859199e-04 to 2.0270646590859299e-04 seconds.
Warning: Simulation tolerance relaxed to achieve convergence from 2.0270646590859299e-04 to 2.0270646590859399e-04 seconds.
Warning: Simulation tolerance relaxed to achieve convergence from 2.0270646590859399e-04 to 2.0270646590859500e-04 seconds.
Warning: Simulation tolerance relaxed to achieve convergence from 2.0270646590859500e-04 to 2.0270646590859600e-04 seconds.
Warning: Simulation tolerance relaxed to achieve convergence from 2.0270646590859600e-04 to 2.0270646590859700e-04 seconds.
Warning: Simulation tolerance relaxed to achieve convergence from 2.0270646590859700e-04 to 2.0270646590859800e-04 seconds.
Warning: Simulation tolerance relaxed to achieve convergence from 2.0270646590859800e-04 to 2.0270646590859901e-04 seconds.
Warning: Simulation tolerance relaxed to achieve convergence from 2.0270646590859901e-04 to 2.0270646590860001e-04 seconds.
Warning: Simulation tolerance relaxed to achieve convergence from 2.0270646590860001e-04 to 2.0270646590860101e-04 seconds.
Warning: Simulation tolerance relaxed to achieve convergence from 2.0270646590860101e-04 to 2.0270646590860202e-04 seconds.
Warning: Simulation tolerance relaxed to achieve convergence from 2.0270646590860202e-04 to 2.0270646590860302e-04 seconds.
Warning: Simulation tolerance relaxed to achieve convergence from 2.0270646590860302e-04 to 2.0270646590860402e-04 seconds.
Warning: Simulation tolerance relaxed to achieve convergence from 2.0270646590860402e-04 to 2.0270646590860502e-04 seconds.
Warning: Simulation tolerance relaxed to achieve convergence from 2.0270646590860502e-04 to 2.0270646590860603e-04 seconds.
Warning: Simulation tolerance relaxed to achieve convergence from 2.0270646590860603e-04 to 2.0270646590860703e-04 seconds.
Warning: Simulation tolerance relaxed to achieve convergence from 2.0270646590860703e-04 to 2.0270646590860803e-04 seconds.
Warning: Simulation tolerance relaxed to achieve convergence from 2.0270646590860803e-04 to 2.0270646590860904e-04 seconds.
Warning: Simulation tolerance relaxed to achieve convergence from 2.0270646590860904e-04 to 2.0270646590861004e-04 seconds.
Warning: Simulation tolerance relaxed to achieve convergence from 2.0270646590861004e-04 to 2.0270646590861104e-04 seconds.
Warning: Simulation tolerance relaxed to achieve convergence from 2.0270646590861104e-04 to 2.0270646590861204e-04 seconds.
Warning: Simulation tolerance relaxed to achieve convergence from 2.0270646590861204e-04 to 2.0270646590861305e-04 seconds.
Warning: Simulation tolerance relaxed to achieve convergence from 2.0270646590861305e-04 to 2.0270646590861405e-04 seconds.
Warning: Simulation tolerance relaxed to achieve convergence from 2.0270646590861405e-04 to 2.0270646590861505e-04 seconds.
Warning: Simulation tolerance relaxed to achieve convergence from 2.0270646590861505e-04 to 2.0270646590861606e-04 seconds.
Warning: Simulation tolerance relaxed to achieve convergence from 2.0270646590861606e-04 to 2.0270646590861706e-04 seconds.
Warning: Simulation tolerance relaxed to achieve convergence from 2.0270646590861706e-04 to 2.0270646590861806e-04 seconds.
Warning: Simulation tolerance relaxed to achieve convergence from 2.0270646590861806e-04 to 2.0270646590861907e-04 seconds.
Warning: Simulation tolerance relaxed to achieve convergence from 2.0270646590861907e-04 to 2.0270646590862007e-04 seconds.
Warning: Simulation tolerance relaxed to achieve convergence from 2.0270646590862007e-04 to 2.0270646590862107e-04 seconds.
Warning: Simulation tolerance relaxed to achieve convergence from 2.0270646590862107e-04 to 2.0270646590862207e-04 seconds.
Warning: Simulation tolerance relaxed to achieve convergence from 2.0270646590862207e-04 to 2.0270646590862308e-04 seconds.
Warning: Simulation tolerance relaxed to achieve convergence from 2.0270646590862308e-04 to 2.0270646590862408e-04 seconds.
Warning: Simulation tolerance relaxed to achieve convergence from 2.0270646590862408e-04 to 2.0270646590862508e-04 seconds.
Warning: Simulation tolerance relaxed to achieve convergence from 2.0270646590862508e-04 to 2.0270646590862609e-04 seconds.
Warning: Simulation tolerance relaxed to achieve convergence from 2.0270646590862609e-04 to 2.0270646590862709e-04 seconds.
Warning: Simulation tolerance relaxed to achieve convergence from 2.0270646590862709e-04 to 2.0270646590862809e-04 seconds.
Warning: Simulation tolerance relaxed to achieve convergence from 2.0270646590862809e-04 to 2.0270646590862909e-04 seconds.
Warning: Simulation tolerance relaxed to achieve convergence from 2.0270646590862909e-04 to 2.0270646590863010e-04 seconds.
Warning: Simulation tolerance relaxed to achieve convergence from 2.0270646590863010e-04 to 2.0270646590863110e-04 seconds.
Warning: Simulation tolerance relaxed to achieve convergence from 2.0270646590863110e-04 to 2.0270646590863210e-04 seconds.
Warning: Simulation tolerance relaxed to achieve convergence from 2.0270646590863210e-04 to 2.0270646590863311e-04 seconds.
Warning: Simulation tolerance relaxed to achieve convergence from 2.0270646590863311e-04 to 2.0270646590863411e-04 seconds.
Warning: Simulation tolerance relaxed to achieve convergence from 2.0270646590863411e-04 to 2.0270646590863511e-04 seconds.
Warning: Simulation tolerance relaxed to achieve convergence from 2.0270646590863511e-04 to 2.0270646590863611e-04 seconds.
Warning: Simulation tolerance relaxed to achieve convergence from 2.0270646590863611e-04 to 2.0270646590863712e-04 seconds.
Warning: Simulation tolerance relaxed to achieve convergence from 2.0270646590863712e-04 to 2.0270646590863812e-04 seconds.
Warning: Simulation tolerance relaxed to achieve convergence from 2.0270646590863812e-04 to 2.0270646590863912e-04 seconds.
Warning: Simulation tolerance relaxed to achieve convergence from 2.0270646590863912e-04 to 2.0270646590864013e-04 seconds.
Warning: Simulation tolerance relaxed to achieve convergence from 2.0270646590864013e-04 to 2.0270646590864113e-04 seconds.
Warning: Simulation tolerance relaxed to achieve convergence from 2.0270646590864113e-04 to 2.0270646590864213e-04 seconds.
Warning: Simulation tolerance relaxed to achieve convergence from 2.0270646590864213e-04 to 2.0270646590864313e-04 seconds.
Warning: Simulation tolerance relaxed to achieve convergence from 2.0270646590864313e-04 to 2.0270646590864414e-04 seconds.
Warning: Simulation tolerance relaxed to achieve convergence from 2.0270646590864414e-04 to 2.0270646590864514e-04 seconds.
Warning: Simulation tolerance relaxed to achieve convergence from 2.0270646590864514e-04 to 2.0270646590864614e-04 seconds.
Warning: Simulation tolerance relaxed to achieve convergence from 2.0270646590864614e-04 to 2.0270646590864715e-04 seconds.
Warning: Simulation tolerance relaxed to achieve convergence from 2.0270646590864715e-04 to 2.0270646590864815e-04 seconds.
Warning: Simulation tolerance relaxed to achieve convergence from 2.0270646590864815e-04 to 2.0270646590864915e-04 seconds.
Warning: Simulation tolerance relaxed to achieve convergence from 2.0270646590864915e-04 to 2.0270646590865015e-04 seconds.
Warning: Simulation tolerance relaxed to achieve convergence from 2.0270646590865015e-04 to 2.0270646590865116e-04 seconds.
Warning: Simulation tolerance relaxed to achieve convergence from 2.0270646590865116e-04 to 2.0270646590865216e-04 seconds.
Warning: Simulation tolerance relaxed to achieve convergence from 2.0270646590865216e-04 to 2.0270646590865316e-04 seconds.
Warning: Simulation tolerance relaxed to achieve convergence from 2.0270646590865316e-04 to 2.0270646590865417e-04 seconds.
Warning: Simulation tolerance relaxed to achieve convergence from 2.0270646590865417e-04 to 2.0270646590865517e-04 seconds.
Warning: Simulation tolerance relaxed to achieve convergence from 2.0270646590865517e-04 to 2.0270646590865617e-04 seconds.
Warning: Simulation tolerance relaxed to achieve convergence from 2.0270646590865617e-04 to 2.0270646590865717e-04 seconds.
Warning: Simulation tolerance relaxed to achieve convergence from 2.0270646590865717e-04 to 2.0270646590865818e-04 seconds.
Warning: Simulation tolerance relaxed to achieve convergence from 2.0270646590865818e-04 to 2.0270646590865918e-04 seconds.
Warning: Simulation tolerance relaxed to achieve convergence from 2.0270646590865918e-04 to 2.0270646590866018e-04 seconds.
Warning: Simulation tolerance relaxed to achieve convergence from 2.0270646590866018e-04 to 2.0270646590866119e-04 seconds.
Warning: Simulation tolerance relaxed to achieve convergence from 2.0270646590866119e-04 to 2.0270646590866219e-04 seconds.
Warning: Simulation tolerance relaxed to achieve convergence from 2.0270646590866219e-04 to 2.0270646590866319e-04 seconds.
Warning: Simulation tolerance relaxed to achieve convergence from 2.0270646590866319e-04 to 2.0270646590866420e-04 seconds.
Warning: Simulation tolerance relaxed to achieve convergence from 2.0270646590866420e-04 to 2.0270646590866520e-04 seconds.
Warning: Simulation tolerance relaxed to achieve convergence from 2.0270646590866520e-04 to 2.0270646590866620e-04 seconds.
Warning: Simulation tolerance relaxed to achieve convergence from 2.0270646590866620e-04 to 2.0270646590866720e-04 seconds.
Warning: Simulation tolerance relaxed to achieve convergence from 2.0270646590866720e-04 to 2.0270646590866821e-04 seconds.
Warning: Simulation tolerance relaxed to achieve convergence from 2.0270646590866821e-04 to 2.0270646590866921e-04 seconds.
Warning: Simulation tolerance relaxed to achieve convergence from 2.0270646590866921e-04 to 2.0270646590867021e-04 seconds.
Warning: Simulation tolerance relaxed to achieve convergence from 2.0270646590867021e-04 to 2.0270646590867122e-04 seconds.
Warning: Simulation tolerance relaxed to achieve convergence from 2.0270646590867122e-04 to 2.0270646590867222e-04 seconds.
Warning: Simulation tolerance relaxed to achieve convergence from 2.0270646590867222e-04 to 2.0270646590867322e-04 seconds.
Warning: Simulation tolerance relaxed to achieve convergence from 2.0270646590867322e-04 to 2.0270646590867422e-04 seconds.
Warning: Simulation tolerance relaxed to achieve convergence from 2.0270646590867422e-04 to 2.0270646590867523e-04 seconds.
Warning: Simulation tolerance relaxed to achieve convergence from 2.0270646590867523e-04 to 2.0270646590867623e-04 seconds.
Warning: Simulation tolerance relaxed to achieve convergence from 2.0270646590867623e-04 to 2.0270646590867723e-04 seconds.
Warning: Simulation tolerance relaxed to achieve convergence from 2.0270646590867723e-04 to 2.0270646590867824e-04 seconds.
Warning: Simulation tolerance relaxed to achieve convergence from 2.0270646590867824e-04 to 2.0270646590867924e-04 seconds.
Warning: Simulation tolerance relaxed to achieve convergence from 2.0270646590867924e-04 to 2.0270646590868024e-04 seconds.
Warning: Simulation tolerance relaxed to achieve convergence from 2.0270646590868024e-04 to 2.0270646590868124e-04 seconds.
Warning: Simulation tolerance relaxed to achieve convergence from 2.0270646590868124e-04 to 2.0270646590868225e-04 seconds.
Warning: Simulation tolerance relaxed to achieve convergence from 2.0270646590868225e-04 to 2.0270646590868325e-04 seconds.
Warning: Simulation tolerance relaxed to achieve convergence from 2.0270646590868325e-04 to 2.0270646590868425e-04 seconds.
Warning: Simulation tolerance relaxed to achieve convergence from 2.0270646590868425e-04 to 2.0270646590868526e-04 seconds.
Warning: Simulation tolerance relaxed to achieve convergence from 2.0270646590868526e-04 to 2.0270646590868626e-04 seconds.
[...]
Warning: Simulation tolerance relaxed to achieve convergence from 2.0270646591203089e-04 to 2.0270646591203189e-04 seconds.
Warning: Simulation tolerance relaxed to achieve convergence from 2.0270646591203189e-04 to 2.0270646591203289e-04 seconds.
Warning: Simulation tolerance relaxed to achieve convergence from 2.0270646591203289e-04 to 2.0270646591203390e-04 seconds.
Warning: Simulation tolerance relaxed to achieve convergence from 2.0270646591203390e-04 to 2.0270646591203490e-04 seconds.
Warning: Simulation tolerance relaxed to achieve convergence from 2.0270646591203490e-04 to 2.0270646591203590e-04 seconds.
Warning: Simulation tolerance relaxed to achieve convergence from 2.0270646591203590e-04 to 2.0270646591203690e-04 seconds.
Warning: Simulation tolerance relaxed to achieve convergence from 2.0270646591203690e-04 to 2.0270646591203791e-04 seconds.
Warning: Simulation tolerance relaxed to achieve convergence from 2.0270646591203791e-04 to 2.0270646591203891e-04 seconds.
Warning: Simulation tolerance relaxed to achieve convergence from 2.0270646591203891e-04 to 2.0270646591203991e-04 seconds.
Warning: Simulation tolerance relaxed to achieve convergence from 2.0270646591203991e-04 to 2.0270646591204092e-04 seconds.
Warning: Simulation tolerance relaxed to achieve convergence from 2.0270646591204092e-04 to 2.0270646591204192e-04 seconds.
Warning: Simulation tolerance relaxed to achieve convergence from 2.0270646591204192e-04 to 2.0270646591204292e-04 seconds.
Warning: Simulation tolerance relaxed to achieve convergence from 2.0270646591204292e-04 to 2.0270646591204392e-04 seconds.
Warning: Simulation tolerance relaxed to achieve convergence from 2.0270646591204392e-04 to 2.0270646591204493e-04 seconds.
Warning: Simulation tolerance relaxed to achieve convergence from 2.0270646591204493e-04 to 2.0270646591204593e-04 seconds.
Warning: Simulation tolerance relaxed to achieve convergence from 2.0270646591204593e-04 to 2.0270646591204693e-04 seconds.
Warning: Simulation tolerance relaxed to achieve convergence from 2.0270646591204693e-04 to 2.0270646591204794e-04 seconds.
Warning: Simulation tolerance relaxed to achieve convergence from 2.0270646591204794e-04 to 2.0270646591204894e-04 seconds.
Warning: Simulation tolerance relaxed to achieve convergence from 2.0270646591204894e-04 to 2.0270646591204994e-04 seconds.
Warning: Simulation tolerance relaxed to achieve convergence from 2.0270646591204994e-04 to 2.0270646591205094e-04 seconds.
Warning: Simulation tolerance relaxed to achieve convergence from 2.0270646591205094e-04 to 2.0270646591205195e-04 seconds.
Warning: Simulation tolerance relaxed to achieve convergence from 2.0270646591205195e-04 to 2.0270646591205295e-04 seconds.
Warning: Simulation tolerance relaxed to achieve convergence from 2.0270646591205295e-04 to 2.0270646591205395e-04 seconds.
Warning: Simulation tolerance relaxed to achieve convergence from 2.0270646591205395e-04 to 2.0270646591205496e-04 seconds.
Warning: Simulation tolerance relaxed to achieve convergence from 2.0270646591205496e-04 to 2.0270646591205596e-04 seconds.
Warning: Simulation tolerance relaxed to achieve convergence from 2.0270646591205596e-04 to 2.0270646591205696e-04 seconds.
Warning: Simulation tolerance relaxed to achieve convergence from 2.0270646591205696e-04 to 2.0270646591205796e-04 seconds.
Warning: Simulation tolerance relaxed to achieve convergence from 2.0270646591205796e-04 to 2.0270646591205897e-04 seconds.
Warning: Simulation tolerance relaxed to achieve convergence from 2.0270646591205897e-04 to 2.0270646591205997e-04 seconds.
Warning: Simulation tolerance relaxed to achieve convergence from 2.0270646591205997e-04 to 2.0270646591206097e-04 seconds.
Warning: Simulation tolerance relaxed to achieve convergence from 2.0270646591206097e-04 to 2.0270646591206198e-04 seconds.
Warning: Simulation tolerance relaxed to achieve convergence from 2.0270646591206198e-04 to 2.0270646591206298e-04 seconds.
Warning: Simulation tolerance relaxed to achieve convergence from 2.0270646591206298e-04 to 2.0270646591206398e-04 seconds.
Warning: Simulation tolerance relaxed to achieve convergence from 2.0270646591206398e-04 to 2.0270646591206498e-04 seconds.
Warning: Simulation tolerance relaxed to achieve convergence from 2.0270646591206498e-04 to 2.0270646591206599e-04 seconds.
Warning: Simulation tolerance relaxed to achieve convergence from 2.0270646591206599e-04 to 2.0270646591206699e-04 seconds.
Warning: Simulation tolerance relaxed to achieve convergence from 2.0270646591206699e-04 to 2.0270646591206799e-04 seconds.
Warning: Simulation tolerance relaxed to achieve convergence from 2.0270646591206799e-04 to 2.0270646591206900e-04 seconds.
Warning: Simulation tolerance relaxed to achieve convergence from 2.0270646591206900e-04 to 2.0270646591207000e-04 seconds.
Warning: Simulation tolerance relaxed to achieve convergence from 2.0270646591207000e-04 to 2.0270646591207100e-04 seconds.
Warning: Simulation tolerance relaxed to achieve convergence from 2.0270646591207100e-04 to 2.0270646591207201e-04 seconds.
Warning: Simulation tolerance relaxed to achieve convergence from 2.0270646591207201e-04 to 2.0270646591207301e-04 seconds.
Warning: Simulation tolerance relaxed to achieve convergence from 2.0270646591207301e-04 to 2.0270646591207401e-04 seconds.
Warning: Simulation tolerance relaxed to achieve convergence from 2.0270646591207401e-04 to 2.0270646591207501e-04 seconds.
Warning: Simulation tolerance relaxed to achieve convergence from 2.0270646591207501e-04 to 2.0270646591207602e-04 seconds.
Warning: Simulation tolerance relaxed to achieve convergence from 2.0270646591207602e-04 to 2.0270646591207702e-04 seconds.
Warning: Simulation tolerance relaxed to achieve convergence from 2.0270646591207702e-04 to 2.0270646591207802e-04 seconds.
Warning: Simulation tolerance relaxed to achieve convergence from 2.0270646591207802e-04 to 2.0270646591207903e-04 seconds.
Warning: Simulation tolerance relaxed to achieve convergence from 2.0270646591207903e-04 to 2.0270646591208003e-04 seconds.
Warning: Simulation tolerance relaxed to achieve convergence from 2.0270646591208003e-04 to 2.0270646591208103e-04 seconds.
Warning: Simulation tolerance relaxed to achieve convergence from 2.0270646591208103e-04 to 2.0270646591208203e-04 seconds.
Warning: Simulation tolerance relaxed to achieve convergence from 2.0270646591208203e-04 to 2.0270646591208304e-04 seconds.
Warning: Simulation tolerance relaxed to achieve convergence from 2.0270646591208304e-04 to 2.0270646591208404e-04 seconds.
Warning: Simulation tolerance relaxed to achieve convergence from 2.0270646591208404e-04 to 2.0270646591208504e-04 seconds.
Warning: Simulation tolerance relaxed to achieve convergence from 2.0270646591208504e-04 to 2.0270646591208605e-04 seconds.
Warning: Simulation tolerance relaxed to achieve convergence from 2.0270646591208605e-04 to 2.0270646591208705e-04 seconds.
Warning: Simulation tolerance relaxed to achieve convergence from 2.0270646591208705e-04 to 2.0270646591208805e-04 seconds.
Warning: Simulation tolerance relaxed to achieve convergence from 2.0270646591208805e-04 to 2.0270646591208905e-04 seconds.
Warning: Simulation tolerance relaxed to achieve convergence from 2.0270646591208905e-04 to 2.0270646591209006e-04 seconds.
Warning: Simulation tolerance relaxed to achieve convergence from 2.0270646591209006e-04 to 2.0270646591209106e-04 seconds.
Warning: Simulation tolerance relaxed to achieve convergence from 2.0270646591209106e-04 to 2.0270646591209206e-04 seconds.
Warning: Simulation tolerance relaxed to achieve convergence from 2.0270646591209206e-04 to 2.0270646591209307e-04 seconds.
Warning: Simulation tolerance relaxed to achieve convergence from 2.0270646591209307e-04 to 2.0270646591209407e-04 seconds.
Warning: Simulation tolerance relaxed to achieve convergence from 2.0270646591209407e-04 to 2.0270646591209507e-04 seconds.
Warning: Simulation tolerance relaxed to achieve convergence from 2.0270646591209507e-04 to 2.0270646591209607e-04 seconds.
Warning: Simulation tolerance relaxed to achieve convergence from 2.0270646591209607e-04 to 2.0270646591209708e-04 seconds.
Warning: Simulation tolerance relaxed to achieve convergence from 2.0270646591209708e-04 to 2.0270646591209808e-04 seconds.
Warning: Simulation tolerance relaxed to achieve convergence from 2.0270646591209808e-04 to 2.0270646591209908e-04 seconds.
Warning: Simulation tolerance relaxed to achieve convergence from 2.0270646591209908e-04 to 2.0270646591210009e-04 seconds.
Warning: Simulation tolerance relaxed to achieve convergence from 2.0270646591210009e-04 to 2.0270646591210109e-04 seconds.
Warning: Simulation tolerance relaxed to achieve convergence from 2.0270646591210109e-04 to 2.0270646591210209e-04 seconds.
Warning: Simulation tolerance relaxed to achieve convergence from 2.0270646591210209e-04 to 2.0270646591210309e-04 seconds.
Warning: Simulation tolerance relaxed to achieve convergence from 2.0270646591210309e-04 to 2.0270646591210410e-04 seconds.
Warning: Simulation tolerance relaxed to achieve convergence from 2.0270646591210410e-04 to 2.0270646591210510e-04 seconds.
Warning: Simulation tolerance relaxed to achieve convergence from 2.0270646591210510e-04 to 2.0270646591210610e-04 seconds.
Warning: Simulation tolerance relaxed to achieve convergence from 2.0270646591210610e-04 to 2.0270646591210711e-04 seconds.
Warning: Simulation tolerance relaxed to achieve convergence from 2.0270646591210711e-04 to 2.0270646591210811e-04 seconds.
Warning: Simulation tolerance relaxed to achieve convergence from 2.0270646591210811e-04 to 2.0270646591210911e-04 seconds.
Warning: Simulation tolerance relaxed to achieve convergence from 2.0270646591210911e-04 to 2.0270646591211011e-04 seconds.
Warning: Simulation tolerance relaxed to achieve convergence from 2.0270646591211011e-04 to 2.0270646591211112e-04 seconds.
Warning: Simulation tolerance relaxed to achieve convergence from 2.0270646591211112e-04 to 2.0270646591211212e-04 seconds.
Warning: Simulation tolerance relaxed to achieve convergence from 2.0270646591211212e-04 to 2.0270646591211312e-04 seconds.
Warning: Simulation tolerance relaxed to achieve convergence from 2.0270646591211312e-04 to 2.0270646591211413e-04 seconds.
Warning: Simulation tolerance relaxed to achieve convergence from 2.0270646591211413e-04 to 2.0270646591211513e-04 seconds.
Warning: Simulation tolerance relaxed to achieve convergence from 2.0270646591211513e-04 to 2.0270646591211613e-04 seconds.
Warning: Simulation tolerance relaxed to achieve convergence from 2.0270646591211613e-04 to 2.0270646591211714e-04 seconds.
Warning: Simulation tolerance relaxed to achieve convergence from 2.0270646591211714e-04 to 2.0270646591211814e-04 seconds.
Warning: Simulation tolerance relaxed to achieve convergence from 2.0270646591211814e-04 to 2.0270646591211914e-04 seconds.
Warning: Simulation tolerance relaxed to achieve convergence from 2.0270646591211914e-04 to 2.0270646591212014e-04 seconds.
Warning: Simulation tolerance relaxed to achieve convergence from 2.0270646591212014e-04 to 2.0270646591212115e-04 seconds.
Warning: Simulation tolerance relaxed to achieve convergence from 2.0270646591212115e-04 to 2.0270646591212215e-04 seconds.
Warning: Simulation tolerance relaxed to achieve convergence from 2.0270646591212215e-04 to 2.0270646591212315e-04 seconds.
Warning: Simulation tolerance relaxed to achieve convergence from 2.0270646591212315e-04 to 2.0270646591212416e-04 seconds.
Warning: Simulation tolerance relaxed to achieve convergence from 2.0270646591212416e-04 to 2.0270646591212516e-04 seconds.
Warning: Simulation tolerance relaxed to achieve convergence from 2.0270646591212516e-04 to 2.0270646591212616e-04 seconds.
Warning: Simulation tolerance relaxed to achieve convergence from 2.0270646591212616e-04 to 2.0270646591212716e-04 seconds.
Warning: Simulation tolerance relaxed to achieve convergence from 2.0270646591212716e-04 to 2.0270646591212817e-04 seconds.
Warning: Simulation tolerance relaxed to achieve convergence from 2.0270646591212817e-04 to 2.0270646591212917e-04 seconds.
Warning: Simulation tolerance relaxed to achieve convergence from 2.0270646591212917e-04 to 2.0270646591213017e-04 seconds.
Warning: Simulation tolerance relaxed to achieve convergence from 2.0270646591213017e-04 to 2.0270646591213118e-04 seconds.
Warning: Simulation tolerance relaxed to achieve convergence from 2.0270646591213118e-04 to 2.0270646591213218e-04 seconds.
Warning: Simulation tolerance relaxed to achieve convergence from 2.0270646591213218e-04 to 2.0270646591213318e-04 seconds.
Warning: Simulation tolerance relaxed to achieve convergence from 2.0270646591213318e-04 to 2.0270646591213418e-04 seconds.
Warning: Simulation tolerance relaxed to achieve convergence from 2.0270646591213418e-04 to 2.0270646591213519e-04 seconds.
Warning: Simulation tolerance relaxed to achieve convergence from 2.0270646591213519e-04 to 2.0270646591213619e-04 seconds.
Warning: Simulation tolerance relaxed to achieve convergence from 2.0270646591213619e-04 to 2.0270646591213719e-04 seconds.
Warning: Simulation tolerance relaxed to achieve convergence from 2.0270646591213719e-04 to 2.0270646591213820e-04 seconds.
Warning: Simulation tolerance relaxed to achieve convergence from 2.0270646591213820e-04 to 2.0270646591213920e-04 seconds.
Warning: Simulation tolerance relaxed to achieve convergence from 2.0270646591213920e-04 to 2.0270646591214020e-04 seconds.
Warning: Simulation tolerance relaxed to achieve convergence from 2.0270646591214020e-04 to 2.0270646591214120e-04 seconds.
Warning: Simulation tolerance relaxed to achieve convergence from 2.0270646591214120e-04 to 2.0270646591214221e-04 seconds.
Warning: Simulation tolerance relaxed to achieve convergence from 2.0270646591214221e-04 to 2.0270646591214321e-04 seconds.
Warning: Simulation tolerance relaxed to achieve convergence from 2.0270646591214321e-04 to 2.0270646591214421e-04 seconds.
Warning: Simulation tolerance relaxed to achieve convergence from 2.0270646591214421e-04 to 2.0270646591214522e-04 seconds.
Warning: Simulation tolerance relaxed to achieve convergence from 2.0270646591214522e-04 to 2.0270646591214622e-04 seconds.
Warning: Simulation tolerance relaxed to achieve convergence from 2.0270646591214622e-04 to 2.0270646591214722e-04 seconds.
Warning: Simulation tolerance relaxed to achieve convergence from 2.0270646591214722e-04 to 2.0270646591214822e-04 seconds.
Warning: Simulation tolerance relaxed to achieve convergence from 2.0270646591214822e-04 to 2.0270646591214923e-04 seconds.
Warning: Simulation tolerance relaxed to achieve convergence from 2.0270646591214923e-04 to 2.0270646591215023e-04 seconds.
Warning: Simulation tolerance relaxed to achieve convergence from 2.0270646591215023e-04 to 2.0270646591215123e-04 seconds.
Warning: Simulation tolerance relaxed to achieve convergence from 2.0270646591215123e-04 to 2.0270646591215224e-04 seconds.
Warning: Simulation tolerance relaxed to achieve convergence from 2.0270646591215224e-04 to 2.0270646591215324e-04 seconds.
Warning: Simulation tolerance relaxed to achieve convergence from 2.0270646591215324e-04 to 2.0270646591215424e-04 seconds.
Warning: Simulation tolerance relaxed to achieve convergence from 2.0270646591215424e-04 to 2.0270646591215524e-04 seconds.
Warning: Simulation tolerance relaxed to achieve convergence from 2.0270646591215524e-04 to 2.0270646591215625e-04 seconds.
Warning: Simulation tolerance relaxed to achieve convergence from 2.0270646591215625e-04 to 2.0270646591215725e-04 seconds.
Warning: Simulation tolerance relaxed to achieve convergence from 2.0270646591215725e-04 to 2.0270646591215825e-04 seconds.
Warning: Simulation tolerance relaxed to achieve convergence from 2.0270646591215825e-04 to 2.0270646591215926e-04 seconds.
Warning: Simulation tolerance relaxed to achieve convergence from 2.0270646591215926e-04 to 2.0270646591216026e-04 seconds.
Warning: Simulation tolerance relaxed to achieve convergence from 2.0270646591216026e-04 to 2.0270646591216126e-04 seconds.
Warning: Simulation tolerance relaxed to achieve convergence from 2.0270646591216126e-04 to 2.0270646591216226e-04 seconds.
Warning: Simulation tolerance relaxed to achieve convergence from 2.0270646591216226e-04 to 2.0270646591216327e-04 seconds.
Warning: Simulation tolerance relaxed to achieve convergence from 2.0270646591216327e-04 to 2.0270646591216427e-04 seconds.
Warning: Simulation tolerance relaxed to achieve convergence from 2.0270646591216427e-04 to 2.0270646591216527e-04 seconds.
Warning: Simulation tolerance relaxed to achieve convergence from 2.0270646591216527e-04 to 2.0270646591216628e-04 seconds.
Warning: Simulation tolerance relaxed to achieve convergence from 2.0270646591216628e-04 to 2.0270646591216728e-04 seconds.
Warning: Simulation tolerance relaxed to achieve convergence from 2.0270646591216728e-04 to 2.0270646591216828e-04 seconds.
Warning: Simulation tolerance relaxed to achieve convergence from 2.0270646591216828e-04 to 2.0270646591216929e-04 seconds.
Warning: Simulation tolerance relaxed to achieve convergence from 2.0270646591216929e-04 to 2.0270646591217029e-04 seconds.
Warning: Simulation tolerance relaxed to achieve convergence from 2.0270646591217029e-04 to 2.0270646591217129e-04 seconds.
Warning: Simulation tolerance relaxed to achieve convergence from 2.0270646591217129e-04 to 2.0270646591217229e-04 seconds.
Warning: Simulation tolerance relaxed to achieve convergence from 2.0270646591217229e-04 to 2.0270646591217330e-04 seconds.
Warning: Simulation tolerance relaxed to achieve convergence from 2.0270646591217330e-04 to 2.0270646591217430e-04 seconds.
Warning: Simulation tolerance relaxed to achieve convergence from 2.0270646591217430e-04 to 2.0270646591217530e-04 seconds.
Warning: Simulation tolerance relaxed to achieve convergence from 2.0270646591217530e-04 to 2.0270646591217631e-04 seconds.
Warning: Simulation tolerance relaxed to achieve convergence from 2.0270646591217631e-04 to 2.0270646591217731e-04 seconds.
Warning: Simulation tolerance relaxed to achieve convergence from 2.0270646591217731e-04 to 2.0270646591217831e-04 seconds.
Warning: Simulation tolerance relaxed to achieve convergence from 2.0270646591217831e-04 to 2.0270646591217931e-04 seconds.
Warning: Simulation tolerance relaxed to achieve convergence from 2.0270646591217931e-04 to 2.0270646591218032e-04 seconds.
Warning: Simulation tolerance relaxed to achieve convergence from 2.0270646591218032e-04 to 2.0270646591218132e-04 seconds.
Warning: Simulation tolerance relaxed to achieve convergence from 2.0270646591218132e-04 to 2.0270646591218232e-04 seconds.
Warning: Simulation tolerance relaxed to achieve convergence from 2.0270646591218232e-04 to 2.0270646591218333e-04 seconds.
Warning: Simulation tolerance relaxed to achieve convergence from 2.0270646591218333e-04 to 2.0270646591218433e-04 seconds.
Warning: Simulation tolerance relaxed to achieve convergence from 2.0270646591218433e-04 to 2.0270646591218533e-04 seconds.
Warning: Simulation tolerance relaxed to achieve convergence from 2.0270646591218533e-04 to 2.0270646591218633e-04 seconds.
Warning: Simulation tolerance relaxed to achieve convergence from 2.0270646591218633e-04 to 2.0270646591218734e-04 seconds.
Warning: Simulation tolerance relaxed to achieve convergence from 2.0270646591218734e-04 to 2.0270646591218834e-04 seconds.
Warning: Simulation tolerance relaxed to achieve convergence from 2.0270646591218834e-04 to 2.0270646591218834e-04 seconds.
.step iref=0.0001 rx=200000

Simulation stopped by user.
Total elapsed time: 12.027 seconds.

Files loaded:
C:\Users\emanu\Documents\POLITO\ANALabs\Lab1\Sim\SampleAndHold_TrasmissionGate.net
C:\Users\emanu\AppData\Local\LTspice\lib\cmp\standard.mos
C:\Users\emanu\Documents\POLITO\ANALabs\Lab1\Sim\CD4007.lib

