Circuit: * C:\Users\skipi\Desktop\Leo\PoliTo\Anno4\Semestre2\ANALabs\LAB3\lab3.asc

WARNING: Less than two connections to node n004.  This node is used by v4.
WARNING: Less than two connections to node vc.  This node is used by r4.
Direct Newton iteration failed to find .op point.  (Use ".option noopiter" to skip.)
Starting Gmin stepping
Gmin = 10
Gmin = 1.07374
Gmin = 0.115292
Gmin = 0.0123794
Gmin = 0.00132923
Gmin = 0.000142725
vernier = 0.5
vernier = 0.25
vernier = 0.125
Gmin = 5.84601e-05
vernier = 0.0625
vernier = 0.03125
vernier = 0.015625
vernier = 0.0078125
Gmin = 5.77812e-05
vernier = 0.00390625
vernier = 0.00520833
Gmin = 5.72386e-05
vernier = 0.00694444
Gmin = 5.63519e-05
vernier = 0.00925925
vernier = 0.0123457
Gmin = 5.48947e-05
vernier = 0.00617283
vernier = 0.00308642
vernier = 0.00154321
vernier = 0.000771604
Gmin = 5.48418e-05
vernier = 0.00102881
Gmin = 5.4715e-05
vernier = 0.00137174
vernier = 0.00182899
Gmin = 5.45028e-05
vernier = 0.00243865
vernier = 0.00325153
Gmin = 5.41661e-05
vernier = 0.00433537
Gmin = 5.36406e-05
vernier = 0.00578049
vernier = 0.00770732
Gmin = 5.277e-05
vernier = 0.0102764
vernier = 0.0137019
Gmin = 5.14113e-05
vernier = 0.0182692
Gmin = 4.93451e-05
vernier = 0.0243589
vernier = 0.0324786
Gmin = 4.60654e-05
vernier = 0.0433047
vernier = 0.0577396
Gmin = 4.12899e-05
vernier = 0.0769862
Gmin = 3.47754e-05
vernier = 0.102648
vernier = 0.136864
Gmin = 2.61096e-05
vernier = 0.182486
vernier = 0.243314
Gmin = 1.65974e-05
vernier = 0.324419
Gmin = 8.20832e-06
vernier = 0.432558
vernier = 0.576744
Gmin = 2.58643e-06
vernier = 0.768992
vernier = 1
Gmin = 4.40239e-07
Gmin = 4.72703e-08
Gmin = 5.07561e-09
Gmin = 5.44989e-10
Gmin = 5.85178e-11
Gmin = 6.2833e-12
vernier = 0.5
vernier = 0.25
vernier = 0.125
vernier = 0.0625
Gmin = 6.66573e-12
vernier = 0.03125
vernier = 0.015625
vernier = 0.0078125
vernier = 0.00390625
vernier = 0.00195312
Gmin = 6.75669e-12
vernier = 0.000976562
vernier = 0.000488281
Gmin = 0
Gmin stepping failed

Starting source stepping with srcstepmethod=0
Source Step = 3.0303%
vernier = 0.25
Source Step = 0.520833%
Source Step = 0.994318%
Source Step = 1.4678%
Source Step = 1.94129%
Source Step = 2.41477%
vernier = 0.0234375
Source Step = 3.0303%
Source Step = 3.74053%
Source Step = 4.45076%
Source Step = 5.16098%
Source Step = 5.87121%
Source Step = 6.10647%
Source Step = 6.15086%
Source Step = 6.19525%
Source Step = 6.23964%
Source Step = 6.28403%
vernier = 0.00219727
Source Step = 6.3373%
Source Step = 6.40388%
Source Step = 6.47047%
Source Step = 6.53705%
Source Step = 6.60363%
vernier = 0.0032959
Source Step = 6.68021%
Source Step = 6.78008%
Source Step = 6.87996%
Source Step = 6.97983%
Source Step = 7.07971%
vernier = 0.00494385
Source Step = 7.18957%
Source Step = 7.33939%
Source Step = 7.4892%
Source Step = 7.63901%
Source Step = 7.78883%
vernier = 0.00741577
Source Step = 7.94613%
Source Step = 8.17085%
Source Step = 8.39557%
Source Step = 8.62029%
Source Step = 8.84501%
Source Step = 9.06973%
vernier = 0.0111237
Source Step = 9.40681%
Source Step = 9.74389%
Source Step = 10.081%
Source Step = 10.4181%
Source Step = 10.7551%
vernier = 0.0166855
Source Step = 11.2439%
Source Step = 11.7495%
Source Step = 12.2551%
Source Step = 12.7608%
Source Step = 13.2664%
vernier = 0.0250282
Source Step = 13.9743%
Source Step = 14.7327%
Source Step = 15.4911%
Source Step = 16.2495%
Source Step = 17.008%
vernier = 0.0375423
Source Step = 18.0319%
Source Step = 19.1695%
Source Step = 20.3072%
Source Step = 21.4448%
Source Step = 22.5824%
vernier = 0.0563135
Source Step = 24.0614%
Source Step = 25.7679%
Source Step = 27.4743%
Source Step = 29.1808%
Source Step = 30.8873%
vernier = 0.0844703
Source Step = 33.0204%
Source Step = 35.5801%
Source Step = 38.1398%
Source Step = 40.6995%
Source Step = 43.2592%
vernier = 0.126705
Source Step = 46.3308%
Source Step = 50.1704%
Source Step = 54.0099%
Source Step = 57.8495%
Source Step = 61.6891%
Source Step = 61.875%
Source Step = 61.935%
Source Step = 61.995%
Source Step = 62.055%
Source Step = 62.115%
Source Step = 62.175%
vernier = 0.00296966
Source Step = 62.262%
Source Step = 62.352%
Source Step = 62.442%
Source Step = 62.532%
Source Step = 62.6219%
vernier = 0.00445449
Source Step = 62.7479%
Source Step = 62.8829%
Source Step = 63.0179%
Source Step = 63.1529%
Source Step = 63.2879%
vernier = 0.00668173
Source Step = 63.4701%
Source Step = 63.6726%
Source Step = 63.8751%
Source Step = 64.0775%
Source Step = 64.28%
vernier = 0.0100226
Source Step = 64.5432%
Source Step = 64.8469%
Source Step = 65.1507%
Source Step = 65.4544%
Source Step = 65.7581%
vernier = 0.0150339
Source Step = 66.1377%
Source Step = 66.5933%
Source Step = 67.0489%
Source Step = 67.5044%
Source Step = 67.96%
vernier = 0.0225508
Source Step = 68.5067%
Source Step = 69.1901%
Source Step = 69.8734%
Source Step = 70.5568%
Source Step = 71.2401%
vernier = 0.0338263
Source Step = 72.026%
Source Step = 73.051%
Source Step = 74.0761%
Source Step = 75.1011%
Source Step = 76.1262%
vernier = 0.0507394
Source Step = 77.2537%
Source Step = 78.7913%
Source Step = 80.3288%
Source Step = 81.8664%
Source Step = 83.4039%
vernier = 0.0761091
Source Step = 85.0184%
Source Step = 87.3247%
Source Step = 89.631%
Source Step = 90.3374%
Source Step = 90.3734%
Source Step = 90.4094%
Source Step = 90.4455%
Source Step = 90.4815%
Source Step = 90.5175%
Source Step = 90.5536%
Source Step = 90.5896%
Source Step = 90.6256%
vernier = 0.00178381
Source Step = 90.6797%
Source Step = 90.7338%
Source Step = 90.7878%
Source Step = 90.8419%
Source Step = 90.8959%
vernier = 0.00267571
Source Step = 90.9743%
Source Step = 91.0554%
Source Step = 91.1365%
Source Step = 91.2175%
Source Step = 91.2986%
vernier = 0.00401357
Source Step = 91.4121%
Source Step = 91.5338%
Source Step = 91.6554%
Source Step = 91.777%
Source Step = 91.8986%
vernier = 0.00602035
Source Step = 92.0628%
Source Step = 92.2453%
Source Step = 92.4277%
Source Step = 92.6101%
Source Step = 92.7926%
vernier = 0.00903052
Source Step = 93.0297%
Source Step = 93.3034%
Source Step = 93.577%
Source Step = 93.8507%
Source Step = 94.1243%
vernier = 0.0135458
Source Step = 94.4664%
Source Step = 94.8769%
Source Step = 95.2874%
Source Step = 95.6978%
Source Step = 96.1083%
vernier = 0.0203187
Source Step = 96.6009%
Source Step = 97.2166%
Source Step = 97.8323%
Source Step = 98.448%
Source Step = 99.0638%
vernier = 0.030478
Source Step = 99.7718%
Source stepping succeeded in finding the operating point.

Heightened Def Con from 0.135475 to 0.135475

Date: Sun Jun  8 17:41:16 2025
Total elapsed time: 2.501 seconds.

tnom = 27
temp = 27
method = modified trap
totiter = 22819
traniter = 10393
tranpoints = 2544
accept = 2138
rejected = 407
matrix size = 292
fillins = 516
solver = Normal
Avg thread counts: 1.2/1.7/1.8/1.2
Matrix Compiler1: 42.35 KB object code size  7.5/3.3/[1.6]
Matrix Compiler2: 33.24 KB object code size  3.1/3.7/[1.9]

