Circuit: * C:\Users\skipi\Desktop\Leo\PoliTo\Anno4\Semestre2\ANALabs\LAB3\lab3.asc

Direct Newton iteration failed to find .op point.  (Use ".option noopiter" to skip.)
Starting Gmin stepping
Gmin = 10
Gmin = 1.07374
Gmin = 0.115292
Gmin = 0.0123794
Gmin = 0.00132923
Gmin = 0.000142725
vernier = 0.5
vernier = 0.25
vernier = 0.125
Gmin = 5.84601e-05
vernier = 0.0625
vernier = 0.03125
vernier = 0.015625
vernier = 0.0078125
Gmin = 5.77812e-05
vernier = 0.00390625
vernier = 0.00520833
Gmin = 5.72386e-05
vernier = 0.00694444
Gmin = 5.63519e-05
vernier = 0.00925925
vernier = 0.0123457
Gmin = 5.48947e-05
vernier = 0.0164609
vernier = 0.0219478
Gmin = 5.26501e-05
vernier = 0.0292638
vernier = 0.0146319
Gmin = 5.00301e-05
vernier = 0.00731595
vernier = 0.00365797
vernier = 0.00182899
vernier = 0.000914493
Gmin = 4.97567e-05
vernier = 0.000457247
vernier = 0.000609662
Gmin = 4.97055e-05
vernier = 0.000812882
vernier = 0.00108384
Gmin = 4.96088e-05
vernier = 0.00144512
Gmin = 4.94523e-05
vernier = 0.00192683
vernier = 0.00256911
Gmin = 4.91969e-05
vernier = 0.00342548
vernier = 0.0045673
Gmin = 4.8795e-05
vernier = 0.00608973
Gmin = 4.81497e-05
vernier = 0.00811964
vernier = 0.0108262
Gmin = 4.71116e-05
vernier = 0.0144349
vernier = 0.0192465
Gmin = 4.55129e-05
vernier = 0.025662
Gmin = 4.30353e-05
vernier = 0.0342161
vernier = 0.0456214
Gmin = 3.92715e-05
vernier = 0.0608285
vernier = 0.0811047
Gmin = 3.39825e-05
vernier = 0.10814
Gmin = 2.68993e-05
vernier = 0.144186
vernier = 0.192248
Gmin = 1.83958e-05
vernier = 0.25633
vernier = 0.341774
Gmin = 1.01414e-05
vernier = 0.455698
Gmin = 3.9245e-06
vernier = 0.607598
vernier = 0.81013
Gmin = 8.67262e-07
vernier = 1
vernier = 0.5
Gmin = 1.63422e-07
vernier = 0.25
vernier = 0.125
vernier = 0.0625
vernier = 0.03125
vernier = 0.015625
vernier = 0.0078125
vernier = 0.00390625
vernier = 0.00195312
vernier = 0.000976562
vernier = 0.000488281
Gmin = 1.63422e-07
Gmin = 0
Gmin stepping failed

Starting source stepping with srcstepmethod=0
Source Step = 3.0303%
vernier = 0.25
Source Step = 0.520833%
Source Step = 0.994318%
Source Step = 1.4678%
Source Step = 1.94129%
Source Step = 2.41477%
vernier = 0.0234375
Source Step = 3.0303%
Source Step = 3.74053%
Source Step = 4.45076%
Source Step = 5.16098%
Source Step = 5.87121%
vernier = 0.0351562
Source Step = 6.759%
Source Step = 7.82434%
Source Step = 8.88968%
Source Step = 9.20928%
Source Step = 9.47562%
Source Step = 9.74195%
Source Step = 10.0083%
Source Step = 10.2746%
vernier = 0.0131836
Source Step = 10.6342%
Source Step = 11.0337%
Source Step = 11.4332%
Source Step = 11.8327%
Source Step = 12.2322%
vernier = 0.0197754
Source Step = 12.7515%
Source Step = 13.3508%
Source Step = 13.95%
Source Step = 14.5493%
Source Step = 15.1486%
vernier = 0.0296631
Source Step = 15.8976%
Source Step = 16.7965%
Source Step = 17.6954%
Source Step = 18.5943%
Source Step = 19.4931%
vernier = 0.0444946
Source Step = 20.5718%
Source Step = 21.9201%
Source Step = 23.2685%
Source Step = 24.6168%
Source Step = 25.9651%
vernier = 0.0667419
Source Step = 27.5157%
Source Step = 29.5381%
Source Step = 31.5606%
Source Step = 33.5831%
Source Step = 35.6056%
vernier = 0.100113
Source Step = 37.8303%
Source Step = 40.8641%
Source Step = 43.8978%
Source Step = 46.9315%
Source Step = 49.9652%
vernier = 0.150169
Source Step = 53.1506%
Source Step = 57.7012%
Source Step = 62.2518%
Source Step = 66.8024%
Source Step = 71.353%
Source Step = 75.9036%
vernier = 0.225254
Source Step = 82.7295%
Source Step = 89.5553%
Source Step = 96.3812%
Source stepping succeeded in finding the operating point.


Date: Sun Jun  8 14:08:36 2025
Total elapsed time: 15.154 seconds.

tnom = 27
temp = 27
method = modified trap
totiter = 386849
traniter = 380904
tranpoints = 89598
accept = 67201
rejected = 22397
matrix size = 289
fillins = 459
solver = Normal
Avg thread counts: 1.0/1.0/1.0/1.0
Matrix Compiler1: 38.92 KB object code size  17.6/22.4/[8.6]
Matrix Compiler2: 31.88 KB object code size  9.3/10.9/[4.9]

