Circuit: * C:\Users\skipi\Desktop\Leo\PoliTo\Anno4\Semestre2\ANALabs\LAB3\lab3.asc

WARNING: Less than two connections to node n001.  This node is used by v4.
Direct Newton iteration failed to find .op point.  (Use ".option noopiter" to skip.)
Starting Gmin stepping
Gmin = 10
Gmin = 1.07374
Gmin = 0.115292
Gmin = 0.0123794
Gmin = 0.00132923
vernier = 0.5
vernier = 0.25
vernier = 0.125
vernier = 0.0625
Gmin = 0.00100083
vernier = 0.03125
vernier = 0.015625
vernier = 0.0078125
vernier = 0.00390625
vernier = 0.00195312
Gmin = 0.00100083
vernier = 0.000976562
vernier = 0.000488281
Gmin = 0
Gmin stepping failed

Starting source stepping with srcstepmethod=0
Source Step = 3.0303%
vernier = 0.25
Source Step = 7.57576%
Source Step = 9.375%
Source Step = 9.84848%
Source Step = 10.322%
Source Step = 10.7955%
Source Step = 11.2689%
vernier = 0.0234375
Source Step = 11.8608%
Source Step = 12.571%
Source Step = 13.2812%
Source Step = 13.9915%
Source Step = 14.7017%
vernier = 0.0351562
Source Step = 15.2077%
Source Step = 15.4741%
Source Step = 15.7404%
Source Step = 16.0067%
Source Step = 16.2731%
vernier = 0.0131836
Source Step = 16.5661%
Source Step = 16.9656%
Source Step = 17.3651%
Source Step = 17.7646%
Source Step = 18.1641%
vernier = 0.0197754
Source Step = 18.5835%
Source Step = 19.1828%
Source Step = 19.782%
Source Step = 20.3813%
Source Step = 20.9806%
Source Step = 21.5798%
vernier = 0.0296631
Source Step = 22.4787%
Source Step = 23.3776%
Source Step = 24.2765%
Source Step = 25.1753%
Source Step = 26.0742%
vernier = 0.0444946
Source Step = 27.3776%
Source Step = 28.7259%
Source Step = 30.0742%
Source Step = 31.4226%
Source Step = 32.7709%
vernier = 0.0667419
Source Step = 34.6585%
Source Step = 36.681%
Source Step = 38.7035%
Source Step = 40.726%
Source Step = 42.7485%
vernier = 0.100113
Source Step = 45.4788%
Source Step = 48.5125%
Source Step = 51.5463%
Source Step = 54.58%
Source Step = 57.6137%
vernier = 0.150169
Source Step = 61.5576%
Source Step = 66.1081%
Source Step = 70.6587%
Source Step = 75.2093%
Source Step = 79.7599%
vernier = 0.225254
Source Step = 85.4481%
Source Step = 92.274%
Source Step = 99.0999%
Source stepping succeeded in finding the operating point.


Date: Wed Jun 11 16:35:28 2025
Total elapsed time: 0.469 seconds.

tnom = 27
temp = 27
method = trap
totiter = 3728
traniter = 0
tranpoints = 0
accept = 0
rejected = 0
matrix size = 149
fillins = 306
solver = Normal
Avg thread counts: 1.5/0.0/1.9/1.4
Matrix Compiler1:     984 opcodes
Matrix Compiler2: off  [1.7]/3.4/1.8

