Circuit: * C:\Users\skipi\Desktop\Leo\PoliTo\Anno4\Semestre2\ANALabs\LAB3\lab3.asc

WARNING: Less than two connections to node n001.  This node is used by v4.
Direct Newton iteration failed to find .op point.  (Use ".option noopiter" to skip.)
Starting Gmin stepping
Gmin = 10
Gmin = 1.07374
Gmin = 0.115292
Gmin = 0.0123794
Gmin = 0.00132923
vernier = 0.5
vernier = 0.25
vernier = 0.125
vernier = 0.0625
Gmin = 0.00100083
vernier = 0.03125
vernier = 0.015625
vernier = 0.0078125
vernier = 0.00390625
vernier = 0.00195312
Gmin = 0.00100083
vernier = 0.000976562
vernier = 0.000488281
Gmin = 0
Gmin stepping failed

Starting source stepping with srcstepmethod=0
Source Step = 3.0303%
vernier = 0.25
Source Step = 2.27273%
Source Step = 4.16667%
Source Step = 6.06061%
Source Step = 7.3982%
vernier = 0.000976562
Source Step = 7.41596%
Source Step = 7.44555%
Source Step = 7.47514%
Source Step = 7.50473%
Source Step = 7.53433%
vernier = 0.00146484
Source Step = 7.57724%
Source Step = 7.62163%
Source Step = 7.66602%
Source Step = 7.7104%
Source Step = 7.75479%
vernier = 0.00219727
Source Step = 7.81694%
Source Step = 7.88352%
Source Step = 7.95011%
Source Step = 8.01669%
Source Step = 8.08327%
vernier = 0.0032959
Source Step = 8.17316%
Source Step = 8.27304%
Source Step = 8.37291%
Source Step = 8.47279%
Source Step = 8.57267%
vernier = 0.00494385
Source Step = 8.7025%
Source Step = 8.85232%
Source Step = 9.00213%
Source Step = 9.15194%
Source Step = 9.30176%
vernier = 0.00741577
Source Step = 9.48902%
Source Step = 9.71375%
Source Step = 9.93847%
Source Step = 10.1632%
Source Step = 10.3879%
vernier = 0.0111237
Source Step = 10.6576%
Source Step = 10.9947%
Source Step = 11.3317%
Source Step = 11.6688%
Source Step = 12.0059%
vernier = 0.0166855
Source Step = 12.3935%
Source Step = 12.8992%
Source Step = 13.4048%
Source Step = 13.9104%
Source Step = 14.416%
vernier = 0.0250282
Source Step = 14.9722%
Source Step = 15.7306%
Source Step = 16.4891%
Source Step = 17.2475%
Source Step = 18.0059%
vernier = 0.00625706
Source Step = 18.1197%
Source Step = 18.3093%
Source Step = 18.4989%
Source Step = 18.6885%
Source Step = 18.8781%
vernier = 0.00938559
Source Step = 19.1531%
Source Step = 19.4375%
Source Step = 19.7219%
Source Step = 20.0063%
Source Step = 20.2907%
vernier = 0.0140784
Source Step = 20.6889%
Source Step = 21.1155%
Source Step = 21.5421%
Source Step = 21.9687%
Source Step = 22.3953%
vernier = 0.0211176
Source Step = 22.9713%
Source Step = 23.6112%
Source Step = 24.2511%
Source Step = 24.8911%
Source Step = 25.531%
vernier = 0.0316764
Source Step = 26.3629%
Source Step = 27.3228%
Source Step = 28.2827%
Source Step = 29.2426%
Source Step = 30.2024%
vernier = 0.0475145
Source Step = 31.4023%
Source Step = 32.8421%
Source Step = 34.282%
Source Step = 35.7218%
Source Step = 37.1616%
vernier = 0.0712718
Source Step = 38.8894%
Source Step = 41.0492%
Source Step = 43.2089%
Source Step = 45.3687%
Source Step = 47.5285%
vernier = 0.106908
Source Step = 50.0122%
Source Step = 53.2518%
Source Step = 56.4914%
Source Step = 59.731%
Source Step = 62.9707%
vernier = 0.160362
Source Step = 66.5343%
Source Step = 71.3937%
Source Step = 76.2531%
Source Step = 81.1126%
Source Step = 85.972%
vernier = 0.240542
Source Step = 91.0744%
Source Step = 94.7219%
Source Step = 94.7503%
Starting source stepping with srcstepmethod=1
Source Step = 3.0303%
Source Step = 33.3333%
Source Step = 63.6364%
Source Step = 93.9394%
Source Step = 99.7576%
Source Step = 99.7753%
Source stepping failed

Pseudo Transient succeeded in finding the operating point at 10.749 s.

Date: Tue Jun 10 22:23:22 2025
Total elapsed time: 13.464 seconds.

tnom = 27
temp = 27
method = trap
totiter = 210166
traniter = 0
tranpoints = 0
accept = 0
rejected = 5230
matrix size = 391
fillins = 850
solver = Normal
Avg thread counts: 1.0/1.1/1.0/1.0
Matrix Compiler1:    3575 opcodes  13.6/[4.6]/5.0
Matrix Compiler2: 44.95 KB object code size  12.5/10.4/[7.7]

